LAMMPS (10 Aug 2015)
# Remember that LAMMPS 2005 uses only single words as commands, e.g. bond_style
# This script is for lmp_linux executable (2011 64 bit)

# (1) Initialization
units                   real
dimension               3
boundary                p p p
newton                  on
atom_style              full
#processors             2 2 2

kspace_style   		    pppm 1.0e-6
pair_style              lj/cut/coul/long 12.0 12.0

bond_style              harmonic
angle_style             harmonic
dihedral_style          harmonic
improper_style          cvff

# (2) Atom definition: read the .lammps05 file as data.class2
read_data               170KMgO1MLH2O.data
  orthogonal box = (0.761991 -0.707433 -48.5132) to (21.817 20.3476 72.5418)
  reading atoms ...
  1150 atoms
  scanning bonds ...
  scanning angles ...
  reading bonds ...
  100 bonds
  reading angles ...
  50 angles
#change_box      	    all triclinic

# (3) Settings
neighbor                2.0 bin
neigh_modify 		    every 2 delay 10 check yes page 1000000 one 40000
special_bonds           lj/coul 0.0 0.0 1.0

# (4) Minimization: con.grad. (cg)/steep.desc. (sd, somewt. more stable)
thermo_style            custom step temp pe ke etotal enthalpy evdwl ecoul epair ebond eangle edihed eimp emol elong etail lx ly lz cella cellb cellc cellalpha cellbeta cellgamma vol density pxx pyy pzz pxy pxz pyz press
thermo                  50
dump                    0 all atom 5 whole.min
minimize                0.00000001 0.00000001 50000 50000
PPPM initialization ...
  G vector (1/distance) = 0.283574
  grid = 30 30 108
  stencil order = 5
  estimated absolute RMS force accuracy = 0.000375391
  estimated relative force accuracy = 1.13048e-06
  3d grid and FFT values/proc = 157435 97200
  1 neighbor list requests
  update every 1 steps, delay 0 steps, check yes
Step Temp PotEng KinEng TotEng Enthalpy E_vdwl E_coul E_pair E_bond E_angle E_dihed E_impro E_mol E_long E_tail Lx Ly Lz Cella Cellb Cellc CellAlpha CellBeta CellGamma Volume Density Pxx Pyy Pzz Pxy Pxz Pyz Press
0            0   -148746.07            0   -148746.07   -151911.47    5699.9247   -92140.706   -148806.36    32.337284    27.949373            0            0    60.286656   -62365.579            0       21.055       21.055      121.055       21.055       21.055      121.055           90           90           90    53665.258   0.65143209   -5389.2983   -5294.3836   -1449.6677    158.88368   -149.88931   -140.20645   -4044.4499
Loop time of 3.72319 on 1 procs for 56 steps with 1150 atoms

Minimization stats:
  Stopping criterion = energy tolerance
  Energy initial, next-to-last, final =
  Force two-norm initial, final = 568.753 1.68339
  Force max component initial, final = 55.2489 0.220724
  Final line search alpha, max atom move = 0.153668 0.0339182
  Iterations, force evaluations = 56 112

Pair  time (%) = 1.49288 (40.0968)
Bond  time (%) = 0.00111055 (0.029828)
Kspce time (%) = 2.21219 (59.4167)
Neigh time (%) = 0 (0)
Comm  time (%) = 0.00286674 (0.0769971)
Outpt time (%) = 0.0101264 (0.271981)
Other time (%) = 0.0040102 (0.107709)

undump                  0
reset_timestep          0

# (5) NPT Dynamics 1 (pressure = 1 atm in x, y, and z directions of an orthogonal box)
timestep                1.0
velocity                all create 170 4928459 rot yes dist gaussian
fix                     7 all nvt temp 170.0 170.0 100.0 #aniso 1.0 1.0 500

# Full stress tensor incl. xy, yz, xz requires declaration as a triclinic box with tilt factors
thermo_style            custom step temp pe ke etotal enthalpy evdwl ecoul epair ebond eangle edihed eimp emol elong etail lx ly lz cella cellb cellc cellalpha cellbeta cellgamma vol density pxx pyy pzz pxy pxz pyz press
thermo                  100
dump			        1 all atom 2000 trajectory_arc.lammpstrj

run                     200000
PPPM initialization ...
  G vector (1/distance) = 0.283574
  grid = 30 30 108
  stencil order = 5
  estimated absolute RMS force accuracy = 0.000375391
  estimated relative force accuracy = 1.13048e-06
  3d grid and FFT values/proc = 157435 97200
  1 neighbor list requests
  update every 2 steps, delay 10 steps, check yes
Step Temp PotEng KinEng TotEng Enthalpy E_vdwl E_coul E_pair E_bond E_angle E_dihed E_impro E_mol E_long E_tail Lx Ly Lz Cella Cellb Cellc CellAlpha CellBeta CellGamma Volume Density Pxx Pyy Pzz Pxy Pxz Pyz Press
0          170   -149253.79    582.24163   -148671.55    -151841.5    5572.4549   -92486.611   -149285.92    14.124849    18.011454            0            0    32.136303   -62371.768            0       21.055       21.055      121.055       21.055       21.055      121.055           90           90           90    53665.258   0.65143209   -6330.3251   -6343.5735    523.08516    -19.42388   -52.025459    56.773762   -4050.2711
Averages over the last 1001 of 2001 rows, steps 100000 to 200000:
Temp PotEng KinEng TotEng Enthalpy E_vdwl E_coul E_pair E_bond E_angle E_dihed E_impro E_mol E_long E_tail Lx Ly Lz Cella Cellb Cellc CellAlpha CellBeta CellGamma Volume Density Pxx Pyy Pzz Pxy Pxz Pyz Press
169.976 -148662 582.16 -148080 -150250 5825.86 -92180.4 -148720 32.5976 25.7102 0 0 58.3078 -62365.6 0 21.055 21.055 121.055 21.055 21.055 121.055 90 90 90 53665.3 0.651432 -4153.23 -4170.45 6.21913 -14.6713 3.71914 5.22026 -2772.48
Loop time of 5773.3 on 1 procs for 200000 steps with 1150 atoms

Pair  time (%) = 1899.67 (32.9044)
Bond  time (%) = 1.60824 (0.0278564)
Kspce time (%) = 3835.91 (66.4422)
Neigh time (%) = 24.4511 (0.423521)
Comm  time (%) = 5.1387 (0.089008)
Outpt time (%) = 0.280233 (0.00485395)
Other time (%) = 6.24161 (0.108112)
