Info: SIMULATION PARAMETERS:
Info: TIMESTEP               1
Info: NUMBER OF STEPS        0
Info: STEPS PER CYCLE        20
Info: PERIODIC CELL BASIS 1  24.729 0 0
Info: PERIODIC CELL BASIS 2  0 23.7945 0
Info: PERIODIC CELL BASIS 3  0 0 25.981
Info: PERIODIC CELL CENTER   0 0 0
Info: FIRST LDB TIMESTEP     100
Info: LAST LDB TIMESTEP     -1
Info: HOM BACKGROUND SCALING 1
Info: PME BACKGROUND SCALING 1
Info: MIN ATOMS PER PATCH    40
Info: INITIAL TEMPERATURE    298.15
Info: CENTER OF MASS MOVING INITIALLY? NO
Info: DIELECTRIC             1
Info: EXCLUDE                ONETHREE
Info: DCD FILENAME           OUT.LOG.dcd
Info: DCD FREQUENCY          5000
Info: DCD FIRST STEP         5000
Info: DCD FILE WILL CONTAIN UNIT CELL DATA
Info: XST FILENAME           OUT.LOG.xst
Info: XST FREQUENCY          250
Info: NO VELOCITY DCD OUTPUT
Info: NO FORCE DCD OUTPUT
Info: OUTPUT FILENAME        OUT.LOG
Info: BINARY OUTPUT FILES WILL BE USED
Info: RESTART FILENAME       OUT.LOG.restart
Info: RESTART FREQUENCY      50000
Info: BINARY RESTART FILES WILL BE USED
Info: CUTOFF                 12
Info: PAIRLIST DISTANCE      14
Info: PAIRLIST SHRINK RATE   0.01
Info: PAIRLIST GROW RATE     0.01
Info: PAIRLIST TRIGGER       0.3
Info: PAIRLISTS PER CYCLE    2
Info: PAIRLISTS ENABLED
Info: MARGIN                 0.99
Info: HYDROGEN GROUP CUTOFF  2.5
Info: PATCH DIMENSION        17.49
Info: ENERGY OUTPUT STEPS    250
Info: CROSSTERM ENERGY INCLUDED IN DIHEDRAL
Info: TIMING OUTPUT STEPS    250
Info: PRESSURE OUTPUT STEPS  250
Info: LANGEVIN DYNAMICS ACTIVE
Info: LANGEVIN TEMPERATURE   298.15
Info: LANGEVIN USING BBK INTEGRATOR
Info: LANGEVIN DAMPING COEFFICIENT IS 1 INVERSE PS
Info: LANGEVIN DYNAMICS APPLIED TO HYDROGENS
Info: LANGEVIN PISTON PRESSURE CONTROL ACTIVE
Info:        TARGET PRESSURE IS 1.01325 BAR
Info:     OSCILLATION PERIOD IS 100 FS
Info:             DECAY TIME IS 50 FS
Info:     PISTON TEMPERATURE IS 298.15 K
Info:       PRESSURE CONTROL IS ATOM-BASED
Info:    INITIAL STRAIN RATE IS 0 0 0
Info:       CELL FLUCTUATION IS ANISOTROPIC
Info: PARTICLE MESH EWALD (PME) ACTIVE
Info: PME TOLERANCE               1e-06
Info: PME EWALD COEFFICIENT       0.257952
Info: PME INTERPOLATION ORDER     4
Info: PME GRID DIMENSIONS         28 24 28
Info: PME MAXIMUM GRID SPACING    1
Info: FULL ELECTROSTATIC EVALUATION FREQUENCY      1
Info: USING VERLET I (r-RESPA) MTS SCHEME.
Info: C1 SPLITTING OF LONG RANGE ELECTROSTATICS
Info: PLACING ATOMS IN PATCHES BY HYDROGEN GROUPS
Info: RANDOM NUMBER SEED     1662873853
Info: USE HYDROGEN BONDS?    NO
Info: COORDINATE PDB         Al2O3_tet.pdb
Info: STRUCTURE FILE         Al2O3_tet.psf
Info: PARAMETER file: CHARMM format!
Info: PARAMETERS             par_interface-clayff.frc
Info: USING ARITHMETIC MEAN TO COMBINE L-J SIGMA PARAMETERS
Info: SUMMARY OF PARAMETERS:
Info: 115 BONDS
Info: 333 ANGLES
Info: 687 DIHEDRAL
Info: 0 IMPROPER
Info: 0 CROSSTERM
Info: 115 VDW
Info: 0 VDW_PAIRS
Info: 0 NBTHOLE_PAIRS
Info: STRUCTURE SUMMARY:
Info: 1800 ATOMS
Info: 0 BONDS
Info: 0 ANGLES
Info: 0 DIHEDRALS
Info: 0 IMPROPERS
Info: 0 CROSSTERMS
Info: 0 EXCLUSIONS
Info: 5400 DEGREES OF FREEDOM
Info: 1800 HYDROGEN GROUPS
Info: 1 ATOMS IN LARGEST HYDROGEN GROUP
Info: 1800 MIGRATION GROUPS
Info: 1 ATOMS IN LARGEST MIGRATION GROUP
Info: TOTAL MASS = 36706 amu
Info: TOTAL CHARGE = 8.58307e-05 e
Info: MASS DENSITY = 3.98711 g/cm^3
Info: ATOM DENSITY = 0.117743 atoms/A^3
Info: ADDED 0 IMPLICIT EXCLUSIONS
Info: NONBONDED TABLE R-SQUARED SPACING: 0.0625
Info: NONBONDED TABLE SIZE: 769 POINTS
Info: REMOVING COM VELOCITY 0.0391737 -0.0513433 -0.0749544
TCL: Minimizing for 200 steps
ETITLE: TS BOND ANGLE DIHED IMPRP ELECT VDW BOUNDARY MISC KINETIC TOTAL TEMP POTENTIAL TOTAL3 TEMPAVG PRESSURE GPRESSURE VOLUME PRESSAVG GPRESSAVG
ENERGY: 0 0.0000 0.0000 0.0000 0.0000 -432310.6512 22267.5644 0.0000 0.0000 0.0000 -410043.0868 0.0000 -410043.0868 -410043.0868 0.0000 -134725.0920 -134725.0920 15287.5891 -134725.0920 -134725.0920
ENERGY: 40 0.0000 0.0000 0.0000 0.0000 -457226.7261 36514.7887 0.0000 0.0000 0.0000 -420711.9374 0.0000 -420711.9374 -420711.9374 0.0000 85853.2054 85853.2054 15287.5891 85853.2054 85853.2054
ENERGY: 80 0.0000 0.0000 0.0000 0.0000 -457203.2633 36492.3113 0.0000 0.0000 0.0000 -420710.9520 0.0000 -420710.9520 -420710.9520 0.0000 85487.4758 85487.4758 15287.5891 85487.4758 85487.4758
ENERGY: 120 0.0000 0.0000 0.0000 0.0000 -457517.4930 36802.5914 0.0000 0.0000 0.0000 -420714.9016 0.0000 -420714.9016 -420714.9016 0.0000 90702.0265 90702.0265 15287.5891 90702.0265 90702.0265
ENERGY: 160 0.0000 0.0000 0.0000 0.0000 -457543.9656 36829.0130 0.0000 0.0000 0.0000 -420714.9526 0.0000 -420714.9526 -420714.9526 0.0000 91148.9537 91148.9537 15287.5891 91148.9537 91148.9537
ENERGY: 200 0.0000 0.0000 0.0000 0.0000 -457544.0107 36829.0581 0.0000 0.0000 0.0000 -420714.9526 0.0000 -420714.9526 -420714.9526 0.0000 91149.6963 91149.6963 15287.5891 91149.6963 91149.6963
TCL: Running for 250000 steps
Info: Configuration file is ++local
ETITLE: TS BOND ANGLE DIHED IMPRP ELECT VDW BOUNDARY MISC KINETIC TOTAL TEMP POTENTIAL TOTAL3 TEMPAVG PRESSURE GPRESSURE VOLUME PRESSAVG GPRESSAVG
ENERGY: 250 0.0000 0.0000 0.0000 0.0000 -457037.3219 33936.2906 0.0000 0.0000 2744.7596 -420356.2718 511.5651 -423101.0313 -420357.5192 296.5753 2390.2325 2390.2325 20800.4872 4580.5470 4580.5470
ENERGY: 50250 0.0000 0.0000 0.0000 0.0000 -463324.9581 33946.5795 0.0000 0.0000 1618.9012 -427759.4773 301.7290 -429378.3785 -427757.2884 295.1948 -1676.1018 -1676.1018 21836.4702 -57.4583 -57.4583
ENERGY: 100250 0.0000 0.0000 0.0000 0.0000 -463037.0391 33762.3455 0.0000 0.0000 1553.5841 -427721.1095 289.5552 -429274.6935 -427719.8968 303.0894 -4068.4034 -4068.4034 21825.6859 30.9555 30.9555
ENERGY: 150000 0.0000 0.0000 0.0000 0.0000 -463612.8609 34267.5433 0.0000 0.0000 1590.8584 -427754.4593 296.5024 -429345.3176 -427751.6535 299.1514 2307.5079 2307.5079 21752.0564 42.3493 42.3493
ENERGY: 200000 0.0000 0.0000 0.0000 0.0000 -463540.5749 34121.3966 0.0000 0.0000 1634.7738 -427784.4046 304.6873 -429419.1783 -427782.2734 295.3855 492.6158 492.6158 21800.3820 -64.7438 -64.7438
ENERGY: 250000 0.0000 0.0000 0.0000 0.0000 -463357.2041 34011.0529 0.0000 0.0000 1591.3576 -427754.7935 296.5954 -429346.1512 -427753.3180 298.3130 -951.8562 -951.8562 21805.2338 111.3002 111.3002
