#======================================================================

# CRYSTAL DATA

#----------------------------------------------------------------------

data_VESTA_phase_1


_chemical_name_common                  ''
_cell_length_a                         20.07000
_cell_length_b                         19.92000
_cell_length_c                         13.42000
_cell_angle_alpha                      90
_cell_angle_beta                       90
_cell_angle_gamma                      90
_space_group_name_H-M_alt              'P n m a'
_space_group_IT_number                 62

loop_
_space_group_symop_operation_xyz
   'x, y, z'
   '-x, -y, -z'
   '-x+1/2, -y, z+1/2'
   'x+1/2, y, -z+1/2'
   '-x, y+1/2, -z'
   'x, -y+1/2, z'
   'x+1/2, -y+1/2, -z+1/2'
   '-x+1/2, y+1/2, z+1/2'

loop_
   _atom_site_label
   _atom_site_occupancy
   _atom_site_fract_x
   _atom_site_fract_y
   _atom_site_fract_z
   _atom_site_adp_type
   _atom_site_B_iso_or_equiv
   _atom_site_type_symbol
   T1         1.0     0.423200      0.060500     -0.330600     Biso  1.000000 Si
   T2         1.0     0.309000      0.028100     -0.184900     Biso  1.900000 Si
   T3         1.0     0.278800      0.060200      0.031200     Biso  2.100000 Si
   T4         1.0     0.122000      0.064100      0.032600     Biso  1.400000 Si
   T5         1.0     0.072800      0.027800     -0.182200     Biso  1.900000 Si
   T6         1.0     0.188400      0.057800     -0.324900     Biso  2.000000 Si
   T7         1.0     0.423200     -0.169500     -0.325800     Biso  2.700000 Si
   T8         1.0     0.307600     -0.128600     -0.184800     Biso  2.200000 Si
   T9         1.0     0.274800     -0.172200      0.036600     Biso  1.600000 Al
   T10        1.0     0.119900     -0.172900      0.026900     Biso  1.800000 Si
   T11        1.0     0.070200     -0.130400     -0.182600     Biso  1.000000 Si
   T12        1.0     0.189400     -0.174200     -0.317200     Biso  1.200000 Al
   O1         1.0     0.372800      0.066500     -0.239700     Biso  2.600000 O
   O2         1.0     0.309500      0.062100     -0.076100     Biso  1.700000 O
   O3         1.0     0.199300      0.060500      0.026300     Biso  5.400000 O
   O4         1.0     0.100000      0.057100     -0.081700     Biso  4.900000 O
   O5         1.0     0.118300      0.059200     -0.269700     Biso  0.800000 O
   O6         1.0     0.240700      0.044000     -0.241800     Biso  3.600000 O
   O7         1.0     0.375000     -0.150900     -0.236100     Biso  3.000000 O
   O8         1.0     0.307900     -0.151400     -0.068100     Biso  3.000000 O
   O9         1.0     0.198100     -0.154100      0.032400     Biso  3.700000 O
   O10        1.0     0.090900     -0.165200     -0.075100     Biso  4.400000 O
   O11        1.0     0.123000     -0.142700     -0.263200     Biso  5.100000 O
   O12        1.0     0.252900     -0.166000     -0.239300     Biso  2.900000 O
   O13        1.0     0.311200     -0.051900     -0.182300     Biso  5.600000 O
   O14        1.0     0.079000     -0.052600     -0.174300     Biso  4.400000 O
   O15        1.0     0.409100      0.125800     -0.387000     Biso  2.900000 O
   O16        1.0     0.416000      0.001100     -0.417700     Biso  4.000000 O
   O17        1.0     0.397600     -0.130000     -0.419100     Biso  3.100000 O
   O18        1.0     0.184700      0.129500     -0.382400     Biso  1.300000 O
   O19        1.0     0.203700      0.003000     -0.402000     Biso  3.200000 O
   O20        1.0     0.191000     -0.125900     -0.417000     Biso  4.900000 O
   O21        1.0    -0.001600      0.042500     -0.205600     Biso  1.900000 O
   O22        1.0    -0.001600     -0.156500     -0.207800     Biso  1.900000 O
   O23        1.0     0.427700     -0.250000     -0.350300     Biso  2.400000 O
   O24        1.0     0.204500     -0.250000     -0.347600     Biso  1.400000 O
   O25        1.0     0.286100     -0.250000      0.059000     Biso  0.500000 O
   O26        1.0     0.108900     -0.250000      0.058000     Biso  2.700000 O
   Ox1        1.0     0.174600      0.750000      0.351500     Biso  0.700000 O
   Ox2        1.0     0.377000      0.750000      0.379000     Biso  0.700000 O
   Ox3        1.0     0.809290      0.282381      0.696808     Biso  0.700000 H
   Ox4        1.0     0.606890      0.213427      0.662194     Biso  0.700000 H
