
#======================================================================
# CRYSTAL DATA
#----------------------------------------------------------------------
data_VESTA_phase_1

_chemical_name_common                  'C14 H14 N8 O'
_cell_length_a                         5.804300
_cell_length_b                         31.562000
_cell_length_c                         7.898000
_cell_angle_alpha                      90.000000
_cell_angle_beta                       95.860001
_cell_angle_gamma                      90.000000
_cell_volume                           1439.315648
_space_group_name_H-M_alt              'P 1'
_space_group_IT_number                 1

loop_
_space_group_symop_operation_xyz
   'x, y, z'

loop_
   _atom_site_label
   _atom_site_occupancy
   _atom_site_fract_x
   _atom_site_fract_y
   _atom_site_fract_z
   _atom_site_adp_type
   _atom_site_U_iso_or_equiv
   _atom_site_type_symbol
   N1         1.0     0.472500     0.178540     0.975900    Uiso  ? N
   N2         1.0     0.527500     0.821460     0.024100    Uiso  ? N
   N3         1.0     0.527500     0.678540     0.524100    Uiso  ? N
   N4         1.0     0.472500     0.321460     0.475900    Uiso  ? N
   N5         1.0     0.659200     0.155100     0.043300    Uiso  ? N
   N6         1.0     0.340800     0.844900     0.956700    Uiso  ? N
   N7         1.0     0.340800     0.655100     0.456700    Uiso  ? N
   N8         1.0     0.659200     0.344900     0.543300    Uiso  ? N
   N9         1.0     0.477900     0.096820     0.907100    Uiso  ? N
   N10        1.0     0.522100     0.903180     0.092900    Uiso  ? N
   N11        1.0     0.522100     0.596820     0.592900    Uiso  ? N
   N12        1.0     0.477900     0.403180     0.407100    Uiso  ? N
   N13        1.0     0.483400     0.057310     0.854400    Uiso  ? N
   N14        1.0     0.516600     0.942690     0.145600    Uiso  ? N
   N15        1.0     0.516600     0.557310     0.645600    Uiso  ? N
   N16        1.0     0.483400     0.442690     0.354400    Uiso  ? N
   N17        1.0     0.853000     0.089870     0.055200    Uiso  ? N
   N18        1.0     0.147000     0.910130     0.944800    Uiso  ? N
   N19        1.0     0.147000     0.589870     0.444800    Uiso  ? N
   N20        1.0     0.853000     0.410130     0.555200    Uiso  ? N
   N21        1.0     0.859800     0.049840     0.005700    Uiso  ? N
   N22        1.0     0.140200     0.950160     0.994300    Uiso  ? N
   N23        1.0     0.140200     0.549840     0.494300    Uiso  ? N
   N24        1.0     0.859800     0.450160     0.505700    Uiso  ? N
   N25        1.0     0.703500     0.995820     0.839500    Uiso  ? N
   N26        1.0     0.296500     0.004180     0.160500    Uiso  ? N
   N27        1.0     0.296500     0.495820     0.660500    Uiso  ? N
   N28        1.0     0.703500     0.504180     0.339500    Uiso  ? N
   N29        1.0     0.528500     0.978140     0.730700    Uiso  ? N
   N30        1.0     0.471500     0.021860     0.269300    Uiso  ? N
   N31        1.0     0.471500     0.478140     0.769300    Uiso  ? N
   N32        1.0     0.528500     0.521860     0.230700    Uiso  ? N
   C1         1.0     0.339400     0.251600     0.995400    Uiso  ? C
   C2         1.0     0.660600     0.748400     0.004600    Uiso  ? C
   C3         1.0     0.660600     0.751600     0.504600    Uiso  ? C
   C4         1.0     0.339400     0.248400     0.495400    Uiso  ? C
   C5         1.0     0.510000     0.216820     0.038900    Uiso  ? C
   C6         1.0     0.490000     0.783180     0.961100    Uiso  ? C
   C7         1.0     0.490000     0.716820     0.461100    Uiso  ? C
   C8         1.0     0.510000     0.283180     0.538900    Uiso  ? C
   C9         1.0     0.718200     0.218790     0.145800    Uiso  ? C
   C10        1.0     0.281800     0.781210     0.854200    Uiso  ? C
   C11        1.0     0.281800     0.718790     0.354200    Uiso  ? C
   C12        1.0     0.718200     0.281210     0.645800    Uiso  ? C
   C13        1.0     0.812400     0.178960     0.147500    Uiso  ? C
   C14        1.0     0.187600     0.821040     0.852500    Uiso  ? C
   C15        1.0     0.187600     0.678960     0.352500    Uiso  ? C
   C16        1.0     0.812400     0.321040     0.647500    Uiso  ? C
   C17        1.0     0.030800     0.162870     0.239900    Uiso  ? C
   C18        1.0     0.969200     0.837130     0.760100    Uiso  ? C
   C19        1.0     0.969200     0.662870     0.260100    Uiso  ? C
   C20        1.0     0.030800     0.337130     0.739900    Uiso  ? C
   C21        1.0     0.665800     0.112390     0.998900    Uiso  ? C
   C22        1.0     0.334200     0.887610     0.001100    Uiso  ? C
   C23        1.0     0.334200     0.612390     0.501100    Uiso  ? C
   C24        1.0     0.665800     0.387610     0.498900    Uiso  ? C
   C25        1.0     0.680500     0.035350     0.898800    Uiso  ? C
   C26        1.0     0.319500     0.964650     0.101200    Uiso  ? C
   C27        1.0     0.319500     0.535350     0.601200    Uiso  ? C
   C28        1.0     0.680500     0.464650     0.398800    Uiso  ? C
   C29        1.0     0.566900     0.940910     0.679000    Uiso  ? C
   C30        1.0     0.433100     0.059090     0.321000    Uiso  ? C
   C31        1.0     0.433100     0.440910     0.821000    Uiso  ? C
   C32        1.0     0.566900     0.559090     0.179000    Uiso  ? C
   C33        1.0     0.397100     0.918220     0.563100    Uiso  ? C
   C34        1.0     0.602900     0.081780     0.436900    Uiso  ? C
   C35        1.0     0.602900     0.418220     0.936900    Uiso  ? C
   C36        1.0     0.397100     0.581780     0.063100    Uiso  ? C
   C37        1.0     0.444400     0.877200     0.513400    Uiso  ? C
   C38        1.0     0.555600     0.122800     0.486600    Uiso  ? C
   C39        1.0     0.555600     0.377200     0.986600    Uiso  ? C
   C40        1.0     0.444400     0.622800     0.013400    Uiso  ? C
   C41        1.0     0.290200     0.854630     0.404200    Uiso  ? C
   C42        1.0     0.709800     0.145370     0.595800    Uiso  ? C
   C43        1.0     0.709800     0.354630     0.095800    Uiso  ? C
   C44        1.0     0.290200     0.645370     0.904200    Uiso  ? C
   C45        1.0     0.080900     0.872930     0.341800    Uiso  ? C
   C46        1.0     0.919100     0.127070     0.658200    Uiso  ? C
   C47        1.0     0.919100     0.372930     0.158200    Uiso  ? C
   C48        1.0     0.080900     0.627070     0.841800    Uiso  ? C
   C49        1.0     0.029200     0.913930     0.388100    Uiso  ? C
   C50        1.0     0.970800     0.086070     0.611900    Uiso  ? C
   C51        1.0     0.970800     0.413930     0.111900    Uiso  ? C
   C52        1.0     0.029200     0.586070     0.888100    Uiso  ? C
   C53        1.0     0.185600     0.936380     0.498000    Uiso  ? C
   C54        1.0     0.814400     0.063620     0.502000    Uiso  ? C
   C55        1.0     0.814400     0.436380     0.002000    Uiso  ? C
   C56        1.0     0.185600     0.563620     0.998000    Uiso  ? C
   O1         1.0     0.938300     0.848330     0.235600    Uiso  ? O
   O2         1.0     0.061700     0.151670     0.764400    Uiso  ? O
   O3         1.0     0.061700     0.348330     0.264400    Uiso  ? O
   O4         1.0     0.938300     0.651670     0.735600    Uiso  ? O
   H1         1.0     0.827300     0.981600     0.869400    Uiso  ? H
   H2         1.0     0.172700     0.018400     0.130600    Uiso  ? H
   H3         1.0     0.172700     0.481600     0.630600    Uiso  ? H
   H4         1.0     0.827300     0.518400     0.369400    Uiso  ? H
   H5         1.0     0.820300     0.861600     0.204000    Uiso  ? H
   H6         1.0     0.179700     0.138400     0.796000    Uiso  ? H
   H7         1.0     0.179700     0.361600     0.296000    Uiso  ? H
   H8         1.0     0.820300     0.638400     0.704000    Uiso  ? H
   H9         1.0     0.393500     0.277200     0.051800    Uiso  ? H
   H10        1.0     0.606500     0.722800     0.948200    Uiso  ? H
   H11        1.0     0.606500     0.777200     0.448200    Uiso  ? H
   H12        1.0     0.393500     0.222800     0.551800    Uiso  ? H
   H13        1.0     0.322700     0.256100     0.874500    Uiso  ? H
   H14        1.0     0.677300     0.743900     0.125500    Uiso  ? H
   H15        1.0     0.677300     0.756100     0.625500    Uiso  ? H
   H16        1.0     0.322700     0.243900     0.374500    Uiso  ? H
   H17        1.0     0.192200     0.243900     0.031800    Uiso  ? H
   H18        1.0     0.807800     0.756100     0.968200    Uiso  ? H
   H19        1.0     0.807800     0.743900     0.468200    Uiso  ? H
   H20        1.0     0.192200     0.256100     0.531800    Uiso  ? H
   H21        1.0     0.780100     0.242500     0.204000    Uiso  ? H
   H22        1.0     0.219900     0.757500     0.796000    Uiso  ? H
   H23        1.0     0.219900     0.742500     0.296000    Uiso  ? H
   H24        1.0     0.780100     0.257500     0.704000    Uiso  ? H
   H25        1.0     0.048500     0.133400     0.214700    Uiso  ? H
   H26        1.0     0.951500     0.866600     0.785300    Uiso  ? H
   H27        1.0     0.951500     0.633400     0.285300    Uiso  ? H
   H28        1.0     0.048500     0.366600     0.714700    Uiso  ? H
   H29        1.0     0.159700     0.178400     0.204600    Uiso  ? H
   H30        1.0     0.840300     0.821600     0.795400    Uiso  ? H
   H31        1.0     0.840300     0.678400     0.295400    Uiso  ? H
   H32        1.0     0.159700     0.321600     0.704600    Uiso  ? H
   H33        1.0     0.025400     0.166400     0.360200    Uiso  ? H
   H34        1.0     0.974600     0.833600     0.639800    Uiso  ? H
   H35        1.0     0.974600     0.666400     0.139800    Uiso  ? H
   H36        1.0     0.025400     0.333600     0.860200    Uiso  ? H
   H37        1.0     0.706500     0.927800     0.715800    Uiso  ? H
   H38        1.0     0.293500     0.072200     0.284200    Uiso  ? H
   H39        1.0     0.293500     0.427800     0.784200    Uiso  ? H
   H40        1.0     0.706500     0.572200     0.215800    Uiso  ? H
   H41        1.0     0.583800     0.864700     0.555000    Uiso  ? H
   H42        1.0     0.416200     0.135300     0.445000    Uiso  ? H
   H43        1.0     0.416200     0.364700     0.945000    Uiso  ? H
   H44        1.0     0.583800     0.635300     0.055000    Uiso  ? H
   H45        1.0     0.326000     0.827200     0.372300    Uiso  ? H
   H46        1.0     0.674000     0.172800     0.627700    Uiso  ? H
   H47        1.0     0.674000     0.327200     0.127700    Uiso  ? H
   H48        1.0     0.326000     0.672800     0.872300    Uiso  ? H
   H49        1.0     0.889900     0.926300     0.345400    Uiso  ? H
   H50        1.0     0.110100     0.073700     0.654600    Uiso  ? H
   H51        1.0     0.110100     0.426300     0.154600    Uiso  ? H
   H52        1.0     0.889900     0.573700     0.845400    Uiso  ? H
   H53        1.0     0.150000     0.963800     0.529100    Uiso  ? H
   H54        1.0     0.850000     0.036200     0.470900    Uiso  ? H
   H55        1.0     0.850000     0.463800     0.970900    Uiso  ? H
   H56        1.0     0.150000     0.536200     0.029100    Uiso  ? H
