
#======================================================================
# CRYSTAL DATA
#----------------------------------------------------------------------
data_VESTA_phase_1

_chemical_name_common                  'Si3 O11 Ca2 H6'
_cell_length_a                         6.735000
_cell_length_b                         7.385000
_cell_length_c                         22.487000
_cell_angle_alpha                      90.000000
_cell_angle_beta                       90.000000
_cell_angle_gamma                      123.250000
_cell_volume                           935.350838
_space_group_name_H-M_alt              'B m'
_space_group_IT_number                 8

loop_
_space_group_symop_operation_xyz
   'x, y, z'
   'x, y, -z'
   'x+1/2, y, z+1/2'
   'x+1/2, y, -z+1/2'

loop_
   _atom_site_label
   _atom_site_occupancy
   _atom_site_fract_x
   _atom_site_fract_y
   _atom_site_fract_z
   _atom_site_adp_type
   _atom_site_U_iso_or_equiv
   _atom_site_type_symbol
   Si1        1.0     0.758100     0.386200     0.157380    Uiso  0.005400 Si
   Si2        1.0     0.908700     0.753100     0.071160    Uiso  0.008600 Si
   Si3        1.0     0.759200     0.969700     0.157730    Uiso  0.005600 Si
   O1         1.0     0.771000     0.505900     0.094200    Uiso  0.014000 O
   O2         1.0     0.759000     0.178000     0.132700    Uiso  0.012700 O
   O3         1.0     0.985000     0.536900     0.198200    Uiso  0.009000 O
   O4         1.0     0.519000     0.306300     0.194200    Uiso  0.012000 O
   O5         1.0     0.894000     0.746000     0.000000    Uiso  0.017000 O
   O-H6       1.0     0.188000     0.893000     0.094000    Uiso  0.018000 O
   Wat6       1.0     0.270000     0.434000     0.093900    Uiso  0.045000 O
   O7         1.0     0.770000     0.860000     0.095100    Uiso  0.015000 O
   O8         1.0     0.523000     0.811000     0.195100    Uiso  0.011000 O
   O9         1.0     0.987000     0.045900     0.198500    Uiso  0.010000 O
   Ca1        1.0     0.265100     0.432800     0.205570    Uiso  0.008500 Ca
   Ca3        1.0     0.749900     0.922800     0.293480    Uiso  0.007400 Ca
   Wat1       1.0     0.427000     0.219000     0.000000    Uiso  0.140000 O
   Wat2       1.0     0.879000     0.237000     0.000000    Uiso  0.061000 O
   Wat3       1.0     0.422000     0.800000     0.000000    Uiso  0.130000 O
   Wat1       1.0     1.071020     0.219000     0.500000    Uiso  0.140000 H
   Wat1       1.0     0.775300     0.179590     0.500000    Uiso  0.140000 H
   Wat2       1.0     0.242320     0.089510     0.500000    Uiso  0.061000 H
   Wat2       1.0     0.523020     0.237000     0.500000    Uiso  0.061000 H
   Wat3       1.0     1.066020     0.800000     0.500000    Uiso  0.130000 H
   Wat3       1.0     0.954910     0.934590     0.500000    Uiso  0.130000 H
