#======================================================================

# CRYSTAL DATA

#----------------------------------------------------------------------

data_VESTA_phase_1


_chemical_name_common                  'SSZ-13                                '
_cell_length_a                         13.87481
_cell_length_b                         13.66785
_cell_length_c                         15.23900
_cell_angle_alpha                      90.26347
_cell_angle_beta                       90.38917
_cell_angle_gamma                      120.64661
_space_group_name_H-M_alt              'P 1'
_space_group_IT_number                 1

loop_
_space_group_symop_operation_xyz
   'x, y, z'

loop_
   _atom_site_label
   _atom_site_occupancy
   _atom_site_fract_x
   _atom_site_fract_y
   _atom_site_fract_z
   _atom_site_adp_type
   _atom_site_B_iso_or_equiv
   _atom_site_type_symbol
   Si1        1.0     0.226254      0.999254      0.018089     Biso  1.000000 Si
   Si2        1.0     0.228310      0.226186      0.014282     Biso  1.000000 Si
   Si3        1.0     0.009342      0.222715      0.012716     Biso  1.000000 Si
   Si4        1.0     0.775257      0.005362      0.013905     Biso  1.000000 Si
   Si5        1.0     0.771508      0.775371      0.011084     Biso  1.000000 Si
   Si6        1.0     0.995533      0.776732      0.017908     Biso  1.000000 Si
   Si7        1.0     0.233822      0.000402      0.815287     Biso  1.000000 Si
   Si8        1.0     0.234935      0.232898      0.813087     Biso  1.000000 Si
   Si9        1.0     0.004927      0.230109      0.810443     Biso  1.000000 Si
   Si10       1.0     0.773072      0.002635      0.808667     Biso  1.000000 Si
   Si11       1.0     0.774958      0.773752      0.807126     Biso  1.000000 Si
   Si12       1.0     0.999638      0.774058      0.812835     Biso  1.000000 Si
   Si13       1.0     0.898715      0.331954      0.688793     Biso  1.000000 Si
   Si14       1.0     0.895546      0.560495      0.690927     Biso  1.000000 Si
   Si15       1.0     0.671373      0.559590      0.685802     Biso  1.000000 Si
   Si16       1.0     0.436705      0.333939      0.683153     Biso  1.000000 Si
   Si17       1.0     0.436055      0.101282      0.685583     Biso  1.000000 Si
   Si18       1.0     0.666131      0.104602      0.687840     Biso  1.000000 Si
   Si19       1.0     0.895210      0.328340      0.484146     Biso  1.000000 Si
   Si20       1.0     0.898296      0.558217      0.486909     Biso  1.000000 Si
   Si21       1.0     0.674774      0.556780      0.480013     Biso  1.000000 Si
   Si22       1.0     0.443422      0.334662      0.480378     Biso  1.000000 Si
   Si23       1.0     0.441864      0.107725      0.484377     Biso  1.000000 Si
   Si24       1.0     0.660623      0.111237      0.485531     Biso  1.000000 Si
   Si25       1.0     0.556862      0.895050      0.353419     Biso  1.000000 Si
   Si26       1.0     0.336049      0.890882      0.351917     Biso  1.000000 Si
   Si27       1.0     0.104606      0.671346      0.356834     Biso  1.000000 Si
   Si28       1.0     0.346054      0.449438      0.350983     Biso  1.000000 Si
   Si29       1.0     0.565635      0.662520      0.141467     Biso  1.000000 Si
   Si30       1.0     0.323842      0.884448      0.147580     Biso  1.000000 Si
   Si31       1.0     0.113585      0.439486      0.144282     Biso  1.000000 Si
   Si32       1.0     0.334088      0.443317      0.146441     Biso  1.000000 Si
   O1         1.0     0.092210      0.912968      0.027234     Biso  1.000000 O
   O2         1.0     0.257044      0.128691      0.042953     Biso  1.000000 O
   O3         1.0     0.092581      0.170226      0.015474     Biso  1.000000 O
   O4         1.0     0.884682      0.127141      0.042831     Biso  1.000000 O
   O5         1.0     0.810272      0.908476      0.024342     Biso  1.000000 O
   O6         1.0     0.874377      0.760279      0.043632     Biso  1.000000 O
   O7         1.0     0.122462      0.881018      0.789099     Biso  1.000000 O
   O8         1.0     0.206785      0.102312      0.801273     Biso  1.000000 O
   O9         1.0     0.124192      0.239508      0.788164     Biso  1.000000 O
   O10        1.0     0.902824      0.100944      0.789810     Biso  1.000000 O
   O11        1.0     0.760087      0.880899      0.783639     Biso  1.000000 O
   O12        1.0     0.904766      0.807888      0.790735     Biso  1.000000 O
   O13        1.0     0.768785      0.233826      0.707354     Biso  1.000000 O
   O14        1.0     0.911643      0.453779      0.713129     Biso  1.000000 O
   O15        1.0     0.765814      0.525507      0.709038     Biso  1.000000 O
   O16        1.0     0.548257      0.453046      0.709458     Biso  1.000000 O
   O17        1.0     0.463444      0.231762      0.696487     Biso  1.000000 O
   O18        1.0     0.547271      0.095713      0.711012     Biso  1.000000 O
   O19        1.0     0.785520      0.206559      0.455829     Biso  1.000000 O
   O20        1.0     0.859827      0.425057      0.474846     Biso  1.000000 O
   O21        1.0     0.795404      0.572614      0.453007     Biso  1.000000 O
   O22        1.0     0.577392      0.420783      0.470596     Biso  1.000000 O
   O23        1.0     0.412430      0.204931      0.456329     Biso  1.000000 O
   O24        1.0     0.577620      0.164006      0.482417     Biso  1.000000 O
   O25        1.0     0.435038      0.588788      0.355840     Biso  1.000000 O
   O26        1.0     0.594895      0.808309      0.383094     Biso  1.000000 O
   O27        1.0     0.410416      0.824030      0.365022     Biso  1.000000 O
   O28        1.0     0.208050      0.800762      0.377604     Biso  1.000000 O
   O29        1.0     0.163858      0.591158      0.368355     Biso  1.000000 O
   O30        1.0     0.238867      0.456612      0.389377     Biso  1.000000 O
   O31        1.0     0.462087      0.533168      0.120620     Biso  1.000000 O
   O32        1.0     0.506753      0.743034      0.129752     Biso  1.000000 O
   O33        1.0     0.431034      0.877265      0.109148     Biso  1.000000 O
   O34        1.0     0.235113      0.745022      0.143180     Biso  1.000000 O
   O35        1.0     0.075143      0.525892      0.114555     Biso  1.000000 O
   O36        1.0     0.260116      0.510612      0.132866     Biso  1.000000 O
   O37        1.0     0.286880      0.332082      0.084259     Biso  1.000000 O
   O38        1.0     0.062205      0.331067      0.078464     Biso  1.000000 O
   O39        1.0     0.659437      0.694698      0.067157     Biso  1.000000 O
   O40        1.0     0.671010      0.977892      0.074929     Biso  1.000000 O
   O41        1.0     0.292937      0.961023      0.086779     Biso  1.000000 O
   O42        1.0     0.022441      0.701436      0.081086     Biso  1.000000 O
   O43        1.0     0.684295      0.017576      0.748177     Biso  1.000000 O
   O44        1.0     0.987173      0.317344      0.750023     Biso  1.000000 O
   O45        1.0     0.980336      0.666785      0.753229     Biso  1.000000 O
   O46        1.0     0.690730      0.667582      0.744460     Biso  1.000000 O
   O47        1.0     0.335851      0.018944      0.751874     Biso  1.000000 O
   O48        1.0     0.335166      0.315538      0.746977     Biso  1.000000 O
   O49        1.0     0.382981      0.001881      0.414354     Biso  1.000000 O
   O50        1.0     0.608127      0.003339      0.419321     Biso  1.000000 O
   O51        1.0     0.998459      0.355895      0.421948     Biso  1.000000 O
   O52        1.0     0.010974      0.638743      0.431381     Biso  1.000000 O
   O53        1.0     0.647590      0.632795      0.417827     Biso  1.000000 O
   O54        1.0     0.376404      0.372132      0.411454     Biso  1.000000 O
   O55        1.0     0.928846      0.324782      0.586815     Biso  1.000000 O
   O56        1.0     0.928260      0.598022      0.589224     Biso  1.000000 O
   O57        1.0     0.678433      0.593001      0.583029     Biso  1.000000 O
   O58        1.0     0.402015      0.337443      0.580329     Biso  1.000000 O
   O59        1.0     0.396900      0.060173      0.583295     Biso  1.000000 O
   O60        1.0     0.664082      0.069312      0.585041     Biso  1.000000 O
   O61        1.0     0.268308      0.997467      0.918212     Biso  1.000000 O
   O62        1.0     0.274191      0.273243      0.915462     Biso  1.000000 O
   O63        1.0     0.005178      0.264321      0.913228     Biso  1.000000 O
   O64        1.0     0.743304      0.009048      0.910848     Biso  1.000000 O
   O65        1.0     0.740361      0.736580      0.908664     Biso  1.000000 O
   O66        1.0     0.993407      0.739770      0.915318     Biso  1.000000 O
   O67        1.0     0.616830      0.679084      0.238257     Biso  1.000000 O
   O68        1.0     0.582144      0.934865      0.253123     Biso  1.000000 O
   O69        1.0     0.343763      0.929736      0.249165     Biso  1.000000 O
   O70        1.0     0.052989      0.654305      0.260171     Biso  1.000000 O
   O71        1.0     0.088756      0.399872      0.244600     Biso  1.000000 O
   O72        1.0     0.326321      0.404702      0.249245     Biso  1.000000 O
   Al1        1.0     0.586854      0.683785      0.348485     Biso  1.000000 Al
   Al2        1.0     0.106409      0.437833      0.353919     Biso  1.000000 Al
   Al3        1.0     0.083211      0.650147      0.149944     Biso  1.000000 Al
   Al4        1.0     0.563911      0.896396      0.143846     Biso  1.000000 Al
   Cu1        1.0     0.321695      0.634137      0.375723     Biso  1.000000 Cu
   Cu2        1.0     0.348595      0.699848      0.122768     Biso  1.000000 Cu
