data_nanotube

_audit_creation_method       '(3,21) Nanotube -- TubeGen 3.3, J T Frey, University of Delaware'

_cell_length_a        21.1024
_cell_length_b        21.1024
_cell_length_c        10.7303
_cell_angle_alpha     90.00
_cell_angle_beta      90.00
_cell_angle_gamma     90.00

_symmetry_space_group_name_H-M   'P 1'
_symmetry_Int_Tables_number       1

loop_
_atom_site_label
_atom_site_fract_x
_atom_site_fract_y
_atom_site_fract_z
C         0.9207    0.5000    0.0000
C         0.9162    0.5616    0.0527
C         0.8837    0.6725    0.0263
C         0.8223    0.7704    0.0000
C         0.9204    0.5155    0.2632
C         0.9150    0.5693    0.1842
C         0.9003    0.6293    0.2369
C         0.8805    0.6795    0.1579
C         0.8501    0.7333    0.2106
C         0.8172    0.7763    0.1316
C         0.7734    0.8198    0.1842
C         0.7301    0.8522    0.1053
C         0.6760    0.8821    0.1579
C         0.6256    0.9015    0.0789
C         0.5654    0.9156    0.1316
C         0.5116    0.9205    0.0526
C         0.4499    0.9177    0.1053
C         0.3967    0.9078    0.0263
C         0.3381    0.8883    0.0790
C         0.2897    0.8643    0.0000
C         0.2386    0.8296    0.0527
C         0.1587    0.7460    0.0263
C         0.1047    0.6439    0.0000
C         0.9201    0.5232    0.3947
C         0.9121    0.5845    0.4474
C         0.8979    0.6366    0.3684
C         0.8736    0.6934    0.4211
C         0.8457    0.7397    0.3421
C         0.8069    0.7878    0.3948
C         0.7674    0.8248    0.3158
C         0.7170    0.8604    0.3684
C         0.6690    0.8853    0.2895
C         0.6107    0.9059    0.3421
C         0.5578    0.9167    0.2632
C         0.4961    0.9207    0.3158
C         0.4422    0.9167    0.2368
C         0.3818    0.9037    0.2895
C         0.3310    0.8853    0.2105
C         0.2764    0.8564    0.2632
C         0.2325    0.8247    0.1842
C         0.1879    0.7821    0.2369
C         0.1543    0.7397    0.1579
C         0.1229    0.6865    0.2106
C         0.1021    0.6366    0.1316
C         0.0864    0.5768    0.1842
C         0.0799    0.5232    0.1053
C         0.0811    0.4614    0.1579
C         0.0895    0.4080    0.0789
C         0.1074    0.3489    0.1316
C         0.1300    0.2998    0.0526
C         0.1633    0.2477    0.1053
C         0.1985    0.2066    0.0263
C         0.2447    0.1656    0.0790
C         0.2897    0.1357    0.0000
C         0.3453    0.1088    0.0527
C         0.4576    0.0814    0.0263
C         0.5731    0.0857    0.0000
C         0.9189    0.5386    0.6579
C         0.9105    0.5920    0.5789
C         0.8926    0.6512    0.6316
C         0.8700    0.7003    0.5526
C         0.8367    0.7523    0.6053
C         0.8015    0.7934    0.5263
C         0.7553    0.8344    0.5790
C         0.7103    0.8643    0.5000
C         0.6547    0.8912    0.5527
C         0.6033    0.9078    0.4737
C         0.5424    0.9186    0.5263
C         0.4884    0.9205    0.4474
C         0.4269    0.9143    0.5000
C         0.3744    0.9015    0.4211
C         0.3169    0.8788    0.4737
C         0.2699    0.8522    0.3947
C         0.2208    0.8147    0.4474
C         0.1827    0.7763    0.3684
C         0.1457    0.7268    0.4211
C         0.1195    0.6795    0.3421
C         0.0973    0.6219    0.3948
C         0.0850    0.5692    0.3158
C         0.0794    0.5077    0.3684
C         0.0819    0.4537    0.2895
C         0.0931    0.3930    0.3421
C         0.1102    0.3417    0.2632
C         0.1376    0.2863    0.3158
C         0.1680    0.2416    0.2368
C         0.2094    0.1958    0.2895
C         0.2509    0.1610    0.2105
C         0.3032    0.1282    0.2632
C         0.3525    0.1060    0.1842
C         0.4118    0.0887    0.2369
C         0.4653    0.0807    0.1579
C         0.5270    0.0802    0.2106
C         0.5807    0.0871    0.1316
C         0.6403    0.1034    0.1842
C         0.6900    0.1246    0.1053
C         0.7429    0.1565    0.1579
C         0.7849    0.1905    0.0789
C         0.8272    0.2356    0.1316
C         0.8584    0.2797    0.0526
C         0.8868    0.3346    0.1053
C         0.9048    0.3855    0.0263
C         0.9172    0.4461    0.0790
C         0.9181    0.5463    0.7895
C         0.9068    0.6071    0.8421
C         0.8898    0.6583    0.7632
C         0.8624    0.7137    0.8158
C         0.8320    0.7584    0.7368
C         0.7905    0.8043    0.7895
C         0.7491    0.8390    0.7105
C         0.6968    0.8718    0.7632
C         0.6475    0.8940    0.6842
C         0.5882    0.9114    0.7369
C         0.5347    0.9193    0.6579
C         0.4729    0.9198    0.7106
C         0.4193    0.9129    0.6316
C         0.3597    0.8966    0.6842
C         0.3100    0.8754    0.6053
C         0.2571    0.8435    0.6579
C         0.2151    0.8095    0.5789
C         0.1728    0.7644    0.6316
C         0.1416    0.7203    0.5526
C         0.1132    0.6654    0.6053
C         0.0952    0.6145    0.5263
C         0.0828    0.5539    0.5790
C         0.0793    0.5000    0.5000
C         0.0838    0.4384    0.5527
C         0.0952    0.3855    0.4737
C         0.1163    0.3274    0.5263
C         0.1416    0.2797    0.4474
C         0.1777    0.2296    0.5000
C         0.2151    0.1905    0.4211
C         0.2635    0.1521    0.4737
C         0.3101    0.1246    0.3947
C         0.3671    0.1009    0.4474
C         0.4194    0.0871    0.3684
C         0.4807    0.0797    0.4211
C         0.5348    0.0807    0.3421
C         0.5958    0.0904    0.3948
C         0.6475    0.1060    0.3158
C         0.7036    0.1319    0.3684
C         0.7492    0.1610    0.2895
C         0.7961    0.2012    0.3421
C         0.8320    0.2416    0.2632
C         0.8663    0.2930    0.3158
C         0.8898    0.3417    0.2368
C         0.9088    0.4005    0.2895
C         0.9181    0.4537    0.2105
C         0.9048    0.6145    0.9737
C         0.8584    0.7203    0.9474
C         0.7849    0.8095    0.9211
C         0.7365    0.8479    0.9737
C         0.6899    0.8754    0.8947
C         0.6329    0.8992    0.9474
C         0.5806    0.9129    0.8684
C         0.5193    0.9203    0.9211
C         0.4652    0.9193    0.8421
C         0.4042    0.9096    0.8948
C         0.3525    0.8940    0.8158
C         0.2963    0.8681    0.8684
C         0.2508    0.8390    0.7895
C         0.2039    0.7988    0.8421
C         0.1680    0.7584    0.7632
C         0.1337    0.7070    0.8158
C         0.1102    0.6583    0.7368
C         0.0912    0.5995    0.7895
C         0.0819    0.5462    0.7105
C         0.0796    0.4845    0.7632
C         0.0850    0.4307    0.6842
C         0.0997    0.3707    0.7369
C         0.1196    0.3204    0.6579
C         0.1500    0.2666    0.7106
C         0.1828    0.2237    0.6316
C         0.2267    0.1802    0.6842
C         0.2699    0.1478    0.6053
C         0.3240    0.1179    0.6579
C         0.3744    0.0985    0.5789
C         0.4346    0.0844    0.6316
C         0.4884    0.0795    0.5526
C         0.5502    0.0823    0.6053
C         0.6033    0.0922    0.5263
C         0.6619    0.1117    0.5790
C         0.7104    0.1357    0.5000
C         0.7615    0.1704    0.5527
C         0.8016    0.2067    0.4737
C         0.8413    0.2540    0.5263
C         0.8700    0.2998    0.4474
C         0.8953    0.3561    0.5000
C         0.9105    0.4080    0.4211
C         0.9196    0.4691    0.4737
C         0.1984    0.7933    0.9737
C         0.1300    0.7002    0.9474
C         0.0895    0.5920    0.9211
C         0.0804    0.5308    0.9737
C         0.0799    0.4768    0.8947
C         0.0879    0.4155    0.9474
C         0.1021    0.3634    0.8684
C         0.1264    0.3066    0.9211
C         0.1543    0.2603    0.8421
C         0.1931    0.2122    0.8948
C         0.2326    0.1752    0.8158
C         0.2830    0.1396    0.8684
C         0.3310    0.1147    0.7895
C         0.3893    0.0941    0.8421
C         0.4422    0.0833    0.7632
C         0.5039    0.0793    0.8158
C         0.5578    0.0833    0.7368
C         0.6182    0.0963    0.7895
C         0.6690    0.1147    0.7105
C         0.7236    0.1437    0.7632
C         0.7675    0.1753    0.6842
C         0.8121    0.2180    0.7369
C         0.8457    0.2603    0.6579
C         0.8771    0.3135    0.7106
C         0.8979    0.3634    0.6316
C         0.9136    0.4232    0.6842
C         0.9201    0.4769    0.6053
C         0.3968    0.0922    0.9737
C         0.5116    0.0795    0.9474
C         0.6256    0.0985    0.9211
C         0.6831    0.1212    0.9737
C         0.7301    0.1478    0.8947
C         0.7792    0.1853    0.9474
C         0.8173    0.2237    0.8684
C         0.8543    0.2732    0.9211
C         0.8805    0.3205    0.8421
C         0.9027    0.3782    0.8948
C         0.9150    0.4308    0.8158
C         0.9206    0.4923    0.8684

