Info: SIMULATION PARAMETERS:
Info: TIMESTEP               1
Info: NUMBER OF STEPS        0
Info: STEPS PER CYCLE        20
Info: PERIODIC CELL BASIS 1  27.339 0 0
Info: PERIODIC CELL BASIS 2  0 26.13 0
Info: PERIODIC CELL BASIS 3  0 0 125.981
Info: PERIODIC CELL CENTER   0 0 0
Info: FIRST LDB TIMESTEP     100
Info: LAST LDB TIMESTEP     -1
Info: HOM BACKGROUND SCALING 1
Info: PME BACKGROUND SCALING 1
Info: MIN ATOMS PER PATCH    40
Info: INITIAL TEMPERATURE    298.15
Info: CENTER OF MASS MOVING INITIALLY? NO
Info: DIELECTRIC             1
Info: EXCLUDE                ONETHREE
Info: DCD FILENAME           OUT.LOG.dcd
Info: DCD FREQUENCY          5000
Info: DCD FIRST STEP         5000
Info: DCD FILE WILL CONTAIN UNIT CELL DATA
Info: XST FILENAME           OUT.LOG.xst
Info: XST FREQUENCY          250
Info: NO VELOCITY DCD OUTPUT
Info: NO FORCE DCD OUTPUT
Info: OUTPUT FILENAME        OUT.LOG
Info: BINARY OUTPUT FILES WILL BE USED
Info: RESTART FILENAME       OUT.LOG.restart
Info: RESTART FREQUENCY      50000
Info: BINARY RESTART FILES WILL BE USED
Info: CUTOFF                 12
Info: PAIRLIST DISTANCE      14
Info: PAIRLIST SHRINK RATE   0.01
Info: PAIRLIST GROW RATE     0.01
Info: PAIRLIST TRIGGER       0.3
Info: PAIRLISTS PER CYCLE    2
Info: PAIRLISTS ENABLED
Info: MARGIN                 0
Info: HYDROGEN GROUP CUTOFF  2.5
Info: PATCH DIMENSION        16.5
Info: ENERGY OUTPUT STEPS    250
Info: CROSSTERM ENERGY INCLUDED IN DIHEDRAL
Info: TIMING OUTPUT STEPS    250
Info: PRESSURE OUTPUT STEPS  250
Info: LANGEVIN DYNAMICS ACTIVE
Info: LANGEVIN TEMPERATURE   298.15
Info: LANGEVIN USING BBK INTEGRATOR
Info: LANGEVIN DAMPING COEFFICIENT IS 1 INVERSE PS
Info: LANGEVIN DYNAMICS APPLIED TO HYDROGENS
Info: PARTICLE MESH EWALD (PME) ACTIVE
Info: PME TOLERANCE               1e-06
Info: PME EWALD COEFFICIENT       0.257952
Info: PME INTERPOLATION ORDER     4
Info: PME GRID DIMENSIONS         28 28 128
Info: PME MAXIMUM GRID SPACING    1
Info: FULL ELECTROSTATIC EVALUATION FREQUENCY      1
Info: USING VERLET I (r-RESPA) MTS SCHEME.
Info: C1 SPLITTING OF LONG RANGE ELECTROSTATICS
Info: PLACING ATOMS IN PATCHES BY HYDROGEN GROUPS
Info: RANDOM NUMBER SEED     1662938953
Info: USE HYDROGEN BONDS?    NO
Info: COORDINATE PDB         Al2O3_tets.pdb
Info: STRUCTURE FILE         Al2O3_tets.psf
Info: PARAMETER file: CHARMM format!
Info: PARAMETERS             par_interface-clayff.frc
Info: USING ARITHMETIC MEAN TO COMBINE L-J SIGMA PARAMETERS
Info: SUMMARY OF PARAMETERS:
Info: 115 BONDS
Info: 333 ANGLES
Info: 687 DIHEDRAL
Info: 0 IMPROPER
Info: 0 CROSSTERM
Info: 115 VDW
Info: 0 VDW_PAIRS
Info: 0 NBTHOLE_PAIRS
Info: STRUCTURE SUMMARY:
Info: 1800 ATOMS
Info: 0 BONDS
Info: 0 ANGLES
Info: 0 DIHEDRALS
Info: 0 IMPROPERS
Info: 0 CROSSTERMS
Info: 0 EXCLUSIONS
Info: 5400 DEGREES OF FREEDOM
Info: 1800 HYDROGEN GROUPS
Info: 1 ATOMS IN LARGEST HYDROGEN GROUP
Info: 1800 MIGRATION GROUPS
Info: 1 ATOMS IN LARGEST MIGRATION GROUP
Info: TOTAL MASS = 36706 amu
Info: TOTAL CHARGE = 8.58307e-05 e
Info: MASS DENSITY = 0.677282 g/cm^3
Info: ATOM DENSITY = 0.0200007 atoms/A^3
Info: ADDED 0 IMPLICIT EXCLUSIONS
Info: NONBONDED TABLE R-SQUARED SPACING: 0.0625
Info: NONBONDED TABLE SIZE: 769 POINTS
Info: REMOVING COM VELOCITY -0.0629551 -0.0303198 0.0154896
TCL: Minimizing for 200 steps
ETITLE: TS BOND ANGLE DIHED IMPRP ELECT VDW BOUNDARY MISC KINETIC TOTAL TEMP POTENTIAL TOTAL3 TEMPAVG PRESSURE GPRESSURE VOLUME PRESSAVG GPRESSAVG
ENERGY: 0 0.0000 0.0000 0.0000 0.0000 -398046.2629 7505.2700 0.0000 0.0000 0.0000 -390540.9930 0.0000 -390540.9930 -390540.9930 0.0000 -66589.2333 -66589.2333 89996.8038 -66589.2333 -66589.2333
ENERGY: 40 0.0000 0.0000 0.0000 0.0000 -449686.3818 37382.2037 0.0000 0.0000 0.0000 -412304.1782 0.0000 -412304.1782 -412304.1782 0.0000 13688.8240 13688.8240 89996.8038 13688.8240 13688.8240
ENERGY: 80 0.0000 0.0000 0.0000 0.0000 -456080.1170 36724.3831 0.0000 0.0000 0.0000 -419355.7339 0.0000 -419355.7339 -419355.7339 0.0000 10206.8941 10206.8941 89996.8038 10206.8941 10206.8941
ENERGY: 120 0.0000 0.0000 0.0000 0.0000 -456446.4304 36854.5005 0.0000 0.0000 0.0000 -419591.9299 0.0000 -419591.9299 -419591.9299 0.0000 9876.4720 9876.4720 89996.8038 9876.4720 9876.4720
ENERGY: 160 0.0000 0.0000 0.0000 0.0000 -456853.0526 33836.6873 0.0000 0.0000 0.0000 -423016.3653 0.0000 -423016.3653 -423016.3653 0.0000 -895.0043 -895.0043 89996.8038 -895.0043 -895.0043
ENERGY: 200 0.0000 0.0000 0.0000 0.0000 -461518.2385 38036.8045 0.0000 0.0000 0.0000 -423481.4339 0.0000 -423481.4339 -423481.4339 0.0000 10988.4202 10988.4202 89996.8038 10988.4202 10988.4202
TCL: Running for 250000 steps
Info: Configuration file is ++local
ETITLE: TS BOND ANGLE DIHED IMPRP ELECT VDW BOUNDARY MISC KINETIC TOTAL TEMP POTENTIAL TOTAL3 TEMPAVG PRESSURE GPRESSURE VOLUME PRESSAVG GPRESSAVG
ENERGY: 250 0.0000 0.0000 0.0000 0.0000 -457972.2984 35181.4305 0.0000 0.0000 982.0545 -421808.8135 183.0342 -422790.8680 -421809.7974 185.4710 3304.9109 3304.9109 89996.8038 8818.6126 8818.6126
ENERGY: 50250 0.0000 0.0000 0.0000 0.0000 -462849.8767 34374.5835 0.0000 0.0000 1658.8103 -426816.4829 309.1672 -428475.2932 -426813.5232 301.2338 173.7442 173.7442 89996.8038 868.2228 868.2228
ENERGY: 100250 0.0000 0.0000 0.0000 0.0000 -463127.3165 34638.0779 0.0000 0.0000 1669.7681 -426819.4705 311.2095 -428489.2386 -426818.1601 303.7317 979.7479 979.7479 89996.8038 965.2324 965.2324
ENERGY: 150000 0.0000 0.0000 0.0000 0.0000 -463392.5993 34916.5837 0.0000 0.0000 1583.1401 -426892.8754 295.0638 -428476.0156 -426890.0343 296.0865 1762.3777 1762.3777 89996.8038 1242.8011 1242.8011
ENERGY: 200000 0.0000 0.0000 0.0000 0.0000 -463337.9142 34808.1738 0.0000 0.0000 1588.7697 -426940.9707 296.1131 -428529.7404 -426939.5460 295.9244 1429.1741 1429.1741 89996.8038 745.7708 745.7708
ENERGY: 250000 0.0000 0.0000 0.0000 0.0000 -463096.0819 34643.5411 0.0000 0.0000 1657.2447 -426795.2960 308.8754 -428452.5407 -426793.7113 302.1040 1009.4717 1009.4717 89996.8038 1255.3786 1255.3786
