_chemical_name_common             ?
_chemical_melting_point           ?
_chemical_formula_iupac           'Zn12 N72 C72 H96'
_chemical_formula_moiety          'Zn12 N72 C72 H96'
_chemical_formula_sum             'Zn12 N72 C72 H96'
_chemical_formula_weight          2754.624
_chemical_compound_source         ?
_chemical_absolute_configuration  ?
_exptl_crystal_description        'EDIT-ENTRY'
_diffrn_measurement_device_type   'EDIT-ENTRY'
 
_space_group_IT_number            1
_space_group_crystal_system       cubic
_symmetry_space_group_name_Hall   'P 1'
_symmetry_space_group_name_H-M    'P 1'
 
loop_
_space_group_symop_operation_xyz
'+x,+y,+z'
 
_cell_length_a                    16.9910
_cell_length_b                    16.9910
_cell_length_c                    16.9910
_cell_angle_alpha                 90.0000
_cell_angle_beta                  90.0000
_cell_angle_gamma                 90.0000
_cell_volume                      4905.2011
 
loop_
 _atom_site_label
 _atom_site_type_symbol
 _atom_site_fract_x
 _atom_site_fract_y
 _atom_site_fract_z
Zn1  Zn  0.500000  1.000000  0.750000
Zn2  Zn  1.000000  0.500000  0.250000
Zn3  Zn  0.500000 -0.000000  0.250000
Zn4  Zn  1.000000  0.500000  0.750000
Zn5  Zn  0.750000  0.500000  0.000000
Zn6  Zn  0.500000  0.250000  0.000000
Zn7  Zn  0.250000  0.500000  0.000000
Zn8  Zn  0.500000  0.750000  0.000000
Zn9  Zn  1.000000  0.750000  0.500000
Zn10  Zn  1.000000  0.250000  0.500000
Zn11  Zn  0.250000 -0.000000  0.500000
Zn12  Zn  0.750000 -0.000000  0.500000
N1  N  0.315936 -0.031936  0.588982
N2  N  0.408363 -0.031936  0.681408
C1  C  0.377050  0.007900  0.622950
N3  N  0.396464  0.079288  0.593762
C2  C  0.307779 -0.101625  0.628286
C3  C  0.365472 -0.100285  0.685028
H1  H  0.263222 -0.144240  0.612764
H2  H  0.378282 -0.145057  0.728311
H3  H  0.441305  0.111304  0.616831
H4  H  0.367563  0.104324  0.547838
N4  N  -0.031850  0.684189  0.410893
N5  N  -0.031850  0.591762  0.318467
C4  C  0.007900  0.622950  0.377050
N6  N  0.079110  0.603277  0.406498
C5  C  -0.101375  0.692587  0.371349
C6  C  -0.100017  0.634920  0.314580
H5  H  -0.143895  0.737280  0.386734
H6  H  -0.144672  0.622279  0.271127
H7  H  0.111032  0.558299  0.383565
H8  H  0.104072  0.632068  0.452530
N7  N  0.684145  1.031880  0.589064
N8  N  0.591719  1.031880  0.681490
C7  C  0.622950  0.992100  0.622950
N9  N  0.603390  0.920812  0.593615
C8  C  0.692446  1.101471  0.628510
C9  C  0.634750  1.100134  0.685249
H9  H  0.737090  1.144026  0.613076
H10  H  0.622032  1.144843  0.728625
H11  H  0.558483  0.888841  0.616619
H12  H  0.632239  0.895811  0.547641
N10  N  1.031851  0.315812  0.410893
N11  N  1.031851  0.408238  0.318467
C10  C  0.992100  0.377050  0.377050
N12  N  0.920890  0.396723  0.406497
C11  C  1.101375  0.307414  0.371350
C12  C  1.100017  0.365080  0.314581
H13  H  1.143896  0.262721  0.386735
H14  H  1.144673  0.377722  0.271128
H15  H  0.888967  0.441700  0.383565
H16  H  0.895928  0.367931  0.452530
N13  N  0.315855  1.031880  0.410936
N14  N  0.408281  1.031880  0.318510
C13  C  0.377050  0.992100  0.377050
N15  N  0.396610  0.920812  0.406385
C14  C  0.307554  1.101471  0.371490
C15  C  0.365250  1.100134  0.314750
H17  H  0.262910  1.144026  0.386924
H18  H  0.377968  1.144843  0.271375
H19  H  0.441517  0.888841  0.383381
H20  H  0.367761  0.895811  0.452360
N16  N  1.031850  0.684189  0.589107
N17  N  1.031850  0.591763  0.681533
C16  C  0.992100  0.622950  0.622950
N18  N  0.920890  0.603277  0.593502
C17  C  1.101374  0.692587  0.628651
C18  C  1.100016  0.634921  0.685420
H21  H  1.143895  0.737281  0.613267
H22  H  1.144672  0.622280  0.728873
H23  H  0.888968  0.558299  0.616434
H24  H  0.895928  0.632068  0.547470
N19  N  0.589064 -0.031880  0.315855
N20  N  0.681490 -0.031880  0.408281
C19  C  0.622950  0.007900  0.377050
N21  N  0.593580  0.079163  0.396646
C20  C  0.628532 -0.101456  0.307532
C21  C  0.685302 -0.100097  0.365197
H25  H  0.613101 -0.144009  0.262885
H26  H  0.728707 -0.144786  0.377886
H27  H  0.616547  0.111109  0.441589
H28  H  0.547574  0.104144  0.367827
N22  N  -0.031850  0.410893  0.684189
N23  N  -0.031850  0.318467  0.591763
C22  C  0.007900  0.377050  0.622950
N24  N  0.079134  0.406462  0.603312
C23  C  -0.101389  0.371370  0.692565
C24  C  -0.100053  0.314633  0.634868
H29  H  -0.143912  0.386758  0.737256
H30  H  -0.144728  0.271209  0.622198
H31  H  0.111082  0.383494  0.558370
H32  H  0.104117  0.452465  0.632134
N25  N  0.589043  0.315876 -0.031895
N26  N  0.681469  0.408302 -0.031895
C25  C  0.622950  0.377050  0.007900
N27  N  0.593653  0.396573  0.079213
C26  C  0.628452  0.307612 -0.101511
C27  C  0.685192  0.365307 -0.100173
H33  H  0.612995  0.262991 -0.144081
H34  H  0.728544  0.378049 -0.144898
H35  H  0.616674  0.441462  0.111196
H36  H  0.547692  0.367710  0.104224
N28  N  0.410957  0.315876  1.031895
N29  N  0.318531  0.408302  1.031895
C28  C  0.377050  0.377050  0.992100
N30  N  0.406347  0.396573  0.920787
C29  C  0.371548  0.307612  1.101511
C30  C  0.314808  0.365307  1.100173
H37  H  0.387005  0.262991  1.144081
H38  H  0.271456  0.378049  1.144898
H39  H  0.383326  0.441462  0.888804
H40  H  0.452309  0.367710  0.895776
N31  N  0.410957  0.684124 -0.031895
N32  N  0.318531  0.591698 -0.031895
C31  C  0.377050  0.622950  0.007900
N33  N  0.406347  0.603427  0.079213
C32  C  0.371548  0.692388 -0.101511
C33  C  0.314808  0.634693 -0.100173
H41  H  0.387005  0.737009 -0.144081
H42  H  0.271456  0.621951 -0.144898
H43  H  0.383326  0.558538  0.111196
H44  H  0.452308  0.632290  0.104224
N34  N  0.589043  0.684124  1.031895
N35  N  0.681469  0.591698  1.031895
C34  C  0.622950  0.622950  0.992100
N36  N  0.593653  0.603427  0.920787
C35  C  0.628452  0.692388  1.101511
C36  C  0.685192  0.634693  1.100173
H45  H  0.612995  0.737009  1.144081
H46  H  0.728544  0.621951  1.144898
H47  H  0.616674  0.558538  0.888804
H48  H  0.547691  0.632290  0.895776
N37  N  0.910936  0.468120  0.184145
N38  N  0.818510  0.468120  0.091719
C37  C  0.877050  0.507900  0.122950
N39  N  0.906420  0.579163  0.103354
C38  C  0.871468  0.398544  0.192468
C39  C  0.814698  0.399902  0.134803
H49  H  0.886899  0.355991  0.237115
H50  H  0.771293  0.355213  0.122113
H51  H  0.883453  0.611109  0.058411
H52  H  0.952425  0.604144  0.132173
N40  N  0.468149  0.089107  0.815812
N41  N  0.468149  0.181533  0.908238
C40  C  0.507900  0.122950  0.877050
N42  N  0.579135  0.093538  0.896687
C41  C  0.398610  0.128629  0.807436
C42  C  0.399947  0.185366  0.865133
H53  H  0.356087  0.113240  0.762746
H54  H  0.355271  0.228790  0.877803
H55  H  0.611082  0.116507  0.941629
H56  H  0.604118  0.047536  0.867865
N43  N  0.184145  0.531880  0.089064
N44  N  0.091719  0.531880  0.181490
C43  C  0.122950  0.492100  0.122950
N45  N  0.103390  0.420812  0.093615
C44  C  0.192446  0.601471  0.128510
C45  C  0.134750  0.600134  0.185249
H57  H  0.237090  0.644026  0.113076
H58  H  0.122032  0.644843  0.228625
H59  H  0.058483  0.388841  0.116619
H60  H  0.132239  0.395811  0.047641
N46  N  0.531850  0.910893  0.815811
N47  N  0.531850  0.818467  0.908237
C46  C  0.492100  0.877050  0.877050
N48  N  0.420866  0.906462  0.896688
C47  C  0.601389  0.871371  0.807435
C48  C  0.600053  0.814633  0.865132
H61  H  0.643912  0.886759  0.762745
H62  H  0.644728  0.771209  0.877802
H63  H  0.388918  0.883493  0.941629
H64  H  0.395883  0.952464  0.867866
N49  N  0.815855  0.531880  0.910936
N50  N  0.908281  0.531880  0.818510
C49  C  0.877050  0.492100  0.877050
N51  N  0.896610  0.420812  0.906385
C50  C  0.807554  0.601471  0.871490
C51  C  0.865250  0.600134  0.814750
H65  H  0.762910  0.644026  0.886924
H66  H  0.877968  0.644843  0.771375
H67  H  0.941517  0.388841  0.883381
H68  H  0.867761  0.395811  0.952360
N52  N  0.531850  0.089107  0.184189
N53  N  0.531850  0.181534  0.091763
C52  C  0.492100  0.122950  0.122950
N54  N  0.420866  0.093537  0.103311
C53  C  0.601389  0.128630  0.192566
C54  C  0.600052  0.185368  0.134869
H69  H  0.643912  0.113243  0.237256
H70  H  0.644727  0.228792  0.122199
H71  H  0.388919  0.116506  0.058370
H72  H  0.395883  0.047535  0.132133
N55  N  0.089064  0.468120  0.815855
N56  N  0.181490  0.468120  0.908281
C55  C  0.122950  0.507900  0.877050
N57  N  0.093580  0.579163  0.896646
C56  C  0.128532  0.398544  0.807532
C57  C  0.185302  0.399903  0.865197
H73  H  0.113101  0.355991  0.762885
H74  H  0.228707  0.355214  0.877886
H75  H  0.116547  0.611109  0.941589
H76  H  0.047574  0.604144  0.867827
N58  N  0.468150  0.815811  0.089107
N59  N  0.468150  0.908237  0.181533
C58  C  0.507900  0.877050  0.122950
N60  N  0.579109  0.896724  0.093502
C59  C  0.398626  0.807412  0.128652
C60  C  0.399984  0.865079  0.185421
H77  H  0.356106  0.762718  0.113268
H78  H  0.355329  0.877719  0.228874
H79  H  0.611031  0.941702  0.116434
H80  H  0.604071  0.867933  0.047469
N61  N  0.184124  0.910957  0.468105
N62  N  0.091698  0.818531  0.468105
C61  C  0.122950  0.877050  0.507900
N63  N  0.103392  0.906382  0.579189
C62  C  0.192410  0.871526  0.398504
C63  C  0.134746  0.814755  0.399863
H81  H  0.237035  0.886979  0.355936
H82  H  0.122033  0.771374  0.355158
H83  H  0.058466  0.883399  0.611147
H84  H  0.132224  0.952375  0.604179
N64  N  0.910957  0.815876  0.531895
N65  N  0.818531  0.908302  0.531895
C64  C  0.877050  0.877050  0.492100
N66  N  0.906347  0.896573  0.420787
C65  C  0.871548  0.807612  0.601511
C66  C  0.814808  0.865307  0.600173
H85  H  0.887005  0.762991  0.644081
H86  H  0.771456  0.878049  0.644898
H87  H  0.883326  0.941462  0.388804
H88  H  0.952309  0.867710  0.395776
N67  N  0.815876  0.089043  0.468105
N68  N  0.908302  0.181469  0.468105
C67  C  0.877050  0.122950  0.507900
N69  N  0.896608  0.093618  0.579189
C68  C  0.807590  0.128474  0.398504
C69  C  0.865254  0.185245  0.399863
H89  H  0.762965  0.113021  0.355936
H90  H  0.877967  0.228626  0.355158
H91  H  0.941534  0.116601  0.611147
H92  H  0.867776  0.047625  0.604179
N70  N  0.089043  0.184124  0.531895
N71  N  0.181469  0.091698  0.531895
C70  C  0.122950  0.122950  0.492100
N72  N  0.093653  0.103427  0.420787
C71  C  0.128452  0.192388  0.601511
C72  C  0.185192  0.134693  0.600173
H93  H  0.112995  0.237009  0.644081
H94  H  0.228544  0.121951  0.644898
H95  H  0.116674  0.058538  0.388804
H96  H  0.047691  0.132290  0.395776
