Info: SIMULATION PARAMETERS:
Info: TIMESTEP               1
Info: NUMBER OF STEPS        0
Info: STEPS PER CYCLE        20
Info: PERIODIC CELL BASIS 1  63.165 0 0
Info: PERIODIC CELL BASIS 2  0 63.165 0
Info: PERIODIC CELL BASIS 3  0 0 121.055
Info: PERIODIC CELL CENTER   0 0 0
Info: FIRST LDB TIMESTEP     100
Info: LAST LDB TIMESTEP     -1
Info: HOM BACKGROUND SCALING 1
Info: PME BACKGROUND SCALING 1
Info: MIN ATOMS PER PATCH    40
Info: INITIAL TEMPERATURE    111
Info: CENTER OF MASS MOVING INITIALLY? NO
Info: DIELECTRIC             1
Info: EXCLUDE                ONETHREE
Info: DCD FILENAME           OUT.LOG.dcd
Info: DCD FREQUENCY          5000
Info: DCD FIRST STEP         5000
Info: DCD FILE WILL CONTAIN UNIT CELL DATA
Info: XST FILENAME           OUT.LOG.xst
Info: XST FREQUENCY          2500
Info: NO VELOCITY DCD OUTPUT
Info: NO FORCE DCD OUTPUT
Info: OUTPUT FILENAME        OUT.LOG
Info: BINARY OUTPUT FILES WILL BE USED
Info: RESTART FILENAME       OUT.LOG.restart
Info: RESTART FREQUENCY      50000
Info: BINARY RESTART FILES WILL BE USED
Info: CUTOFF                 12
Info: PAIRLIST DISTANCE      14
Info: PAIRLIST SHRINK RATE   0.01
Info: PAIRLIST GROW RATE     0.01
Info: PAIRLIST TRIGGER       0.3
Info: PAIRLISTS PER CYCLE    2
Info: PAIRLISTS ENABLED
Info: MARGIN                 0
Info: HYDROGEN GROUP CUTOFF  2.5
Info: PATCH DIMENSION        16.5
Info: ENERGY OUTPUT STEPS    250
Info: CROSSTERM ENERGY INCLUDED IN DIHEDRAL
Info: TIMING OUTPUT STEPS    250
Info: PRESSURE OUTPUT STEPS  250
Info: LANGEVIN DYNAMICS ACTIVE
Info: LANGEVIN TEMPERATURE   111
Info: LANGEVIN USING BBK INTEGRATOR
Info: LANGEVIN DAMPING COEFFICIENT IS 1 INVERSE PS
Info: LANGEVIN DYNAMICS APPLIED TO HYDROGENS
Info: PARTICLE MESH EWALD (PME) ACTIVE
Info: PME TOLERANCE               1e-06
Info: PME EWALD COEFFICIENT       0.257952
Info: PME INTERPOLATION ORDER     4
Info: PME GRID DIMENSIONS         64 64 128
Info: PME MAXIMUM GRID SPACING    1
Info: FULL ELECTROSTATIC EVALUATION FREQUENCY      1
Info: USING VERLET I (r-RESPA) MTS SCHEME.
Info: C1 SPLITTING OF LONG RANGE ELECTROSTATICS
Info: PLACING ATOMS IN PATCHES BY HYDROGEN GROUPS
Info: RANDOM NUMBER SEED     1659565278
Info: USE HYDROGEN BONDS?    NO
Info: COORDINATE PDB         C4H10-halflayer.pdb
Info: STRUCTURE FILE         C4H10-halflayer.psf
Info: PARAMETER file: CHARMM format!
Info: PARAMETERS             par_interface.frc
Info: PARAMETERS             par_all22_prot.prm
Info: USING ARITHMETIC MEAN TO COMBINE L-J SIGMA PARAMETERS
Info: SUMMARY OF PARAMETERS:
Info: 235 BONDS
Info: 656 ANGLES
Info: 1132 DIHEDRAL
Info: 34 IMPROPER
Info: 6 CROSSTERM
Info: 157 VDW
Info: 0 VDW_PAIRS
Info: 0 NBTHOLE_PAIRS
Info: STRUCTURE SUMMARY:
Info: 9756 ATOMS
Info: 702 BONDS
Info: 1296 ANGLES
Info: 1458 DIHEDRALS
Info: 0 IMPROPERS
Info: 0 CROSSTERMS
Info: 0 EXCLUSIONS
Info: 29268 DEGREES OF FREEDOM
Info: 9216 HYDROGEN GROUPS
Info: 4 ATOMS IN LARGEST HYDROGEN GROUP
Info: 9216 MIGRATION GROUPS
Info: 4 ATOMS IN LARGEST MIGRATION GROUP
Info: TOTAL MASS = 184508 amu
Info: TOTAL CHARGE = 0 e
Info: MASS DENSITY = 0.634366 g/cm^3
Info: ATOM DENSITY = 0.0201993 atoms/A^3
Info: ADDED 1998 IMPLICIT EXCLUSIONS
Info: NONBONDED TABLE R-SQUARED SPACING: 0.0625
Info: NONBONDED TABLE SIZE: 769 POINTS
Info: REMOVING COM VELOCITY 0.0442734 0.0059384 -0.0383336
TCL: Minimizing for 200 steps
ETITLE: TS BOND ANGLE DIHED IMPRP ELECT VDW BOUNDARY MISC KINETIC TOTAL TEMP POTENTIAL TOTAL3 TEMPAVG PRESSURE GPRESSURE VOLUME PRESSAVG GPRESSAVG
ENERGY: 0 74.0442 141.6224 18.6978 0.0000 -1385393.8491 51263.1896 0.0000 0.0000 0.0000 -1333896.2951 0.0000 -1333896.2951 -1333896.2951 0.0000 -4069.0266 -4095.4140 482987.3242 -4069.0266 -4095.4140
ENERGY: 40 3.9058 18.6839 11.5091 0.0000 -1385800.7376 49682.4532 0.0000 0.0000 0.0000 -1336084.1856 0.0000 -1336084.1856 -1336084.1856 0.0000 -5059.9563 -5077.5584 482987.3242 -5059.9563 -5077.5584
ENERGY: 80 3.1846 16.7523 3.9842 0.0000 -1386176.5830 50033.9907 0.0000 0.0000 0.0000 -1336118.6713 0.0000 -1336118.6713 -1336118.6713 0.0000 -4817.7076 -4837.1370 482987.3242 -4817.7076 -4837.1370
ENERGY: 120 3.2442 16.3424 2.5000 0.0000 -1386108.0256 49957.5955 0.0000 0.0000 0.0000 -1336128.3436 0.0000 -1336128.3436 -1336128.3436 0.0000 -4868.8050 -4886.3722 482987.3242 -4868.8050 -4886.3722
ENERGY: 160 3.1288 16.5953 2.2678 0.0000 -1386030.7653 49874.9299 0.0000 0.0000 0.0000 -1336133.8435 0.0000 -1336133.8435 -1336133.8435 0.0000 -4915.8334 -4935.7936 482987.3242 -4915.8334 -4935.7936
ENERGY: 200 3.0383 16.3936 2.2885 0.0000 -1386105.7350 49948.1200 0.0000 0.0000 0.0000 -1336135.8946 0.0000 -1336135.8946 -1336135.8946 0.0000 -4865.9242 -4866.1300 482987.3242 -4865.9242 -4866.1300
TCL: Running for 500000 steps
Info: Configuration file is ++local
ETITLE: TS BOND ANGLE DIHED IMPRP ELECT VDW BOUNDARY MISC KINETIC TOTAL TEMP POTENTIAL TOTAL3 TEMPAVG PRESSURE GPRESSURE VOLUME PRESSAVG GPRESSAVG
ENERGY: 250 21.7756 74.1299 12.4890 0.0000 -1385744.7393 51144.5833 0.0000 0.0000 1732.2321 -1332759.5294 59.5667 -1334491.7615 -1332756.0391 57.3949 -4040.4680 -3993.2325 482987.3242 -3954.1426 -3952.2671
ENERGY: 100250 78.3066 133.8268 17.2667 0.0000 -1384649.0155 51507.5528 0.0000 0.0000 3226.5058 -1329685.5569 110.9506 -1332912.0627 -1329682.8640 111.8744 -3661.3061 -3659.2608 482987.3242 -3660.3778 -3660.6014
ENERGY: 200250 72.3717 144.8318 16.4276 0.0000 -1384573.6303 51360.2762 0.0000 0.0000 3230.6088 -1329749.1142 111.0917 -1332979.7230 -1329744.0710 110.8880 -3768.6187 -3756.5354 482987.3242 -3718.1109 -3718.0675
ENERGY: 300000 87.5129 136.0583 21.2032 0.0000 -1384638.1325 51409.9776 0.0000 0.0000 3232.6087 -1329750.7717 111.1605 -1332983.3804 -1329747.7481 111.2730 -3691.9535 -3701.6362 482987.3242 -3654.6309 -3654.6742
ENERGY: 400000 90.3625 137.5006 15.1446 0.0000 -1384752.5939 51539.1614 0.0000 0.0000 3240.9250 -1329729.4998 111.4465 -1332970.4248 -1329726.2346 111.3457 -3594.8007 -3618.4281 482987.3242 -3669.3045 -3669.3703
ENERGY: 500000 79.2575 141.8092 23.8074 0.0000 -1384619.6680 51394.1627 0.0000 0.0000 3227.4990 -1329753.1321 110.9848 -1332980.6312 -1329748.7911 111.0216 -3725.8516 -3717.2885 482987.3242 -3685.3440 -3685.2835
