Info: SIMULATION PARAMETERS:
Info: TIMESTEP               1
Info: NUMBER OF STEPS        0
Info: STEPS PER CYCLE        20
Info: PERIODIC CELL BASIS 1  24.729 0 0
Info: PERIODIC CELL BASIS 2  0 23.7945 0
Info: PERIODIC CELL BASIS 3  0 0 25.981
Info: PERIODIC CELL CENTER   0 0 0
Info: FIRST LDB TIMESTEP     100
Info: LAST LDB TIMESTEP     -1
Info: HOM BACKGROUND SCALING 1
Info: PME BACKGROUND SCALING 1
Info: MIN ATOMS PER PATCH    40
Info: INITIAL TEMPERATURE    298.15
Info: CENTER OF MASS MOVING INITIALLY? NO
Info: DIELECTRIC             1
Info: EXCLUDE                ONETHREE
Info: DCD FILENAME           OUT.LOG.dcd
Info: DCD FREQUENCY          5000
Info: DCD FIRST STEP         5000
Info: DCD FILE WILL CONTAIN UNIT CELL DATA
Info: XST FILENAME           OUT.LOG.xst
Info: XST FREQUENCY          250
Info: NO VELOCITY DCD OUTPUT
Info: NO FORCE DCD OUTPUT
Info: OUTPUT FILENAME        OUT.LOG
Info: BINARY OUTPUT FILES WILL BE USED
Info: RESTART FILENAME       OUT.LOG.restart
Info: RESTART FREQUENCY      50000
Info: BINARY RESTART FILES WILL BE USED
Info: CUTOFF                 12
Info: PAIRLIST DISTANCE      14
Info: PAIRLIST SHRINK RATE   0.01
Info: PAIRLIST GROW RATE     0.01
Info: PAIRLIST TRIGGER       0.3
Info: PAIRLISTS PER CYCLE    2
Info: PAIRLISTS ENABLED
Info: MARGIN                 0.99
Info: HYDROGEN GROUP CUTOFF  2.5
Info: PATCH DIMENSION        17.49
Info: ENERGY OUTPUT STEPS    250
Info: CROSSTERM ENERGY INCLUDED IN DIHEDRAL
Info: TIMING OUTPUT STEPS    250
Info: PRESSURE OUTPUT STEPS  250
Info: LANGEVIN DYNAMICS ACTIVE
Info: LANGEVIN TEMPERATURE   298.15
Info: LANGEVIN USING BBK INTEGRATOR
Info: LANGEVIN DAMPING COEFFICIENT IS 1 INVERSE PS
Info: LANGEVIN DYNAMICS APPLIED TO HYDROGENS
Info: LANGEVIN PISTON PRESSURE CONTROL ACTIVE
Info:        TARGET PRESSURE IS 3000 BAR
Info:     OSCILLATION PERIOD IS 100 FS
Info:             DECAY TIME IS 50 FS
Info:     PISTON TEMPERATURE IS 298.15 K
Info:       PRESSURE CONTROL IS ATOM-BASED
Info:    INITIAL STRAIN RATE IS 0 0 0
Info:       CELL FLUCTUATION IS ANISOTROPIC
Info: PARTICLE MESH EWALD (PME) ACTIVE
Info: PME TOLERANCE               1e-06
Info: PME EWALD COEFFICIENT       0.257952
Info: PME INTERPOLATION ORDER     4
Info: PME GRID DIMENSIONS         28 24 28
Info: PME MAXIMUM GRID SPACING    1
Info: FULL ELECTROSTATIC EVALUATION FREQUENCY      1
Info: USING VERLET I (r-RESPA) MTS SCHEME.
Info: C1 SPLITTING OF LONG RANGE ELECTROSTATICS
Info: PLACING ATOMS IN PATCHES BY HYDROGEN GROUPS
Info: RANDOM NUMBER SEED     1662902869
Info: USE HYDROGEN BONDS?    NO
Info: COORDINATE PDB         Al2O3_tet.pdb
Info: STRUCTURE FILE         Al2O3_tet.psf
Info: PARAMETER file: CHARMM format!
Info: PARAMETERS             par_interface-clayff.frc
Info: USING ARITHMETIC MEAN TO COMBINE L-J SIGMA PARAMETERS
Info: SUMMARY OF PARAMETERS:
Info: 115 BONDS
Info: 333 ANGLES
Info: 687 DIHEDRAL
Info: 0 IMPROPER
Info: 0 CROSSTERM
Info: 115 VDW
Info: 0 VDW_PAIRS
Info: 0 NBTHOLE_PAIRS
Info: STRUCTURE SUMMARY:
Info: 1800 ATOMS
Info: 0 BONDS
Info: 0 ANGLES
Info: 0 DIHEDRALS
Info: 0 IMPROPERS
Info: 0 CROSSTERMS
Info: 0 EXCLUSIONS
Info: 5400 DEGREES OF FREEDOM
Info: 1800 HYDROGEN GROUPS
Info: 1 ATOMS IN LARGEST HYDROGEN GROUP
Info: 1800 MIGRATION GROUPS
Info: 1 ATOMS IN LARGEST MIGRATION GROUP
Info: TOTAL MASS = 36706 amu
Info: TOTAL CHARGE = 8.58307e-05 e
Info: MASS DENSITY = 3.98711 g/cm^3
Info: ATOM DENSITY = 0.117743 atoms/A^3
Info: ADDED 0 IMPLICIT EXCLUSIONS
Info: NONBONDED TABLE R-SQUARED SPACING: 0.0625
Info: NONBONDED TABLE SIZE: 769 POINTS
Info: REMOVING COM VELOCITY 0.0602491 0.0575315 0.0049454
TCL: Minimizing for 200 steps
ETITLE: TS BOND ANGLE DIHED IMPRP ELECT VDW BOUNDARY MISC KINETIC TOTAL TEMP POTENTIAL TOTAL3 TEMPAVG PRESSURE GPRESSURE VOLUME PRESSAVG GPRESSAVG
ENERGY: 0 0.0000 0.0000 0.0000 0.0000 -432310.6512 22267.5644 0.0000 0.0000 0.0000 -410043.0868 0.0000 -410043.0868 -410043.0868 0.0000 -134725.0920 -134725.0920 15287.5891 -134725.0920 -134725.0920
ENERGY: 40 0.0000 0.0000 0.0000 0.0000 -457226.7259 36514.7885 0.0000 0.0000 0.0000 -420711.9374 0.0000 -420711.9374 -420711.9374 0.0000 85853.2027 85853.2027 15287.5891 85853.2027 85853.2027
ENERGY: 80 0.0000 0.0000 0.0000 0.0000 -457510.9199 36796.0040 0.0000 0.0000 0.0000 -420714.9158 0.0000 -420714.9158 -420714.9158 0.0000 90592.8113 90592.8113 15287.5891 90592.8113 90592.8113
ENERGY: 120 0.0000 0.0000 0.0000 0.0000 -457544.0511 36829.0985 0.0000 0.0000 0.0000 -420714.9526 0.0000 -420714.9526 -420714.9526 0.0000 91150.3460 91150.3460 15287.5891 91150.3460 91150.3460
ENERGY: 160 0.0000 0.0000 0.0000 0.0000 -457543.9716 36829.0190 0.0000 0.0000 0.0000 -420714.9526 0.0000 -420714.9526 -420714.9526 0.0000 91149.0544 91149.0544 15287.5891 91149.0544 91149.0544
ENERGY: 200 0.0000 0.0000 0.0000 0.0000 -457544.0193 36829.0667 0.0000 0.0000 0.0000 -420714.9526 0.0000 -420714.9526 -420714.9526 0.0000 91149.8383 91149.8383 15287.5891 91149.8383 91149.8383
TCL: Running for 250000 steps
Info: Configuration file is ++local
ETITLE: TS BOND ANGLE DIHED IMPRP ELECT VDW BOUNDARY MISC KINETIC TOTAL TEMP POTENTIAL TOTAL3 TEMPAVG PRESSURE GPRESSURE VOLUME PRESSAVG GPRESSAVG
ENERGY: 250 0.0000 0.0000 0.0000 0.0000 -457020.1533 33919.5491 0.0000 0.0000 2562.4418 -420538.1623 477.5849 -423100.6041 -420539.2153 283.8356 2690.8894 2690.8894 20534.9215 7040.1576 7040.1576
ENERGY: 50250 0.0000 0.0000 0.0000 0.0000 -463130.1572 34414.4051 0.0000 0.0000 1607.5174 -427108.2347 299.6072 -428715.7521 -427106.7624 300.9517 3141.0067 3141.0067 21999.8411 2963.9301 2963.9301
ENERGY: 100250 0.0000 0.0000 0.0000 0.0000 -463209.1783 34507.6108 0.0000 0.0000 1608.5557 -427093.0118 299.8008 -428701.5675 -427089.4219 300.0577 4227.0867 4227.0867 22003.7473 2930.5637 2930.5637
ENERGY: 150000 0.0000 0.0000 0.0000 0.0000 -463124.3000 34430.5003 0.0000 0.0000 1575.6274 -427118.1724 293.6636 -428693.7998 -427115.5545 298.4059 3214.7502 3214.7502 22003.5858 2987.0313 2987.0313
ENERGY: 200000 0.0000 0.0000 0.0000 0.0000 -463126.2798 34427.6488 0.0000 0.0000 1676.9977 -427021.6332 312.5569 -428698.6309 -427018.9670 305.7070 3534.3772 3534.3772 21959.1663 3056.9705 3056.9705
ENERGY: 250000 0.0000 0.0000 0.0000 0.0000 -463003.0906 34338.8065 0.0000 0.0000 1603.4115 -427060.8726 298.8420 -428664.2841 -427059.1857 300.0253 2419.2480 2419.2480 21964.0537 3009.1105 3009.1105
