#======================================================================

# CRYSTAL DATA

#----------------------------------------------------------------------

data_VESTA_phase_1


_chemical_name_common                  ''
_cell_length_a                         3.50580
_cell_length_b                         3.50580
_cell_length_c                         28.04638
_cell_angle_alpha                      90
_cell_angle_beta                       90
_cell_angle_gamma                      90
_space_group_name_H-M_alt              'P 1'
_space_group_IT_number                 1

loop_
_space_group_symop_operation_xyz
   'x, y, z'

loop_
   _atom_site_label
   _atom_site_occupancy
   _atom_site_fract_x
   _atom_site_fract_y
   _atom_site_fract_z
   _atom_site_adp_type
   _atom_site_B_iso_or_equiv
   _atom_site_type_symbol
   Ni1        1.0     0.000000      0.000000      0.031250     Biso  1.000000 Ni
   Ni2        1.0     0.000000      0.000000      0.406250     Biso  1.000000 Ni
   Ni3        1.0     0.000000      0.000000      0.281250     Biso  1.000000 Ni
   Ni4        1.0     0.000000      0.000000      0.156250     Biso  1.000000 Ni
   Ni5        1.0     0.000000      0.500000      0.468750     Biso  1.000000 Ni
   Ni6        1.0     0.000000      0.500000      0.343750     Biso  1.000000 Ni
   Ni7        1.0     0.000000      0.500000      0.218750     Biso  1.000000 Ni
   Ni8        1.0     0.000000      0.500000      0.093750     Biso  1.000000 Ni
   Ni9        1.0     0.500000      0.000000      0.468750     Biso  1.000000 Ni
   Ni10       1.0     0.500000      0.000000      0.343750     Biso  1.000000 Ni
   Ni11       1.0     0.500000      0.000000      0.218750     Biso  1.000000 Ni
   Ni12       1.0     0.500000      0.000000      0.093750     Biso  1.000000 Ni
   Ni13       1.0     0.500000      0.500000      0.031250     Biso  1.000000 Ni
   Ni14       1.0     0.500000      0.500000      0.406250     Biso  1.000000 Ni
   Ni15       1.0     0.500000      0.500000      0.281250     Biso  1.000000 Ni
   Ni16       1.0     0.500000      0.500000      0.156250     Biso  1.000000 Ni
   Co1        1.0     0.000000      0.000000      0.533562     Biso  1.000000 Co
   Co2        1.0     0.000000      0.000000      0.910194     Biso  1.000000 Co
   Co3        1.0     0.000000      0.000000      0.784650     Biso  1.000000 Co
   Co4        1.0     0.000000      0.000000      0.659106     Biso  1.000000 Co
   Co5        1.0     0.000000      0.502175      0.972965     Biso  1.000000 Co
   Co6        1.0     0.000000      0.502175      0.847422     Biso  1.000000 Co
   Co7        1.0     0.000000      0.502175      0.721878     Biso  1.000000 Co
   Co8        1.0     0.000000      0.502175      0.596334     Biso  1.000000 Co
   Co9        1.0     0.502175      0.000000      0.972965     Biso  1.000000 Co
   Co10       1.0     0.502175      0.000000      0.847422     Biso  1.000000 Co
   Co11       1.0     0.502175      0.000000      0.721878     Biso  1.000000 Co
   Co12       1.0     0.502175      0.000000      0.596334     Biso  1.000000 Co
   Co13       1.0     0.502175      0.502175      0.533562     Biso  1.000000 Co
   Co14       1.0     0.502175      0.502175      0.910194     Biso  1.000000 Co
   Co15       1.0     0.502175      0.502175      0.784650     Biso  1.000000 Co
   Co16       1.0     0.502175      0.502175      0.659106     Biso  1.000000 Co
