LAMMPS (10 Aug 2015)
# Remember that LAMMPS 2005 uses only single words as commands, e.g. bond_style
# This script is for lmp_linux executable (2011 64 bit)

# (1) Initialization
units                   real
dimension               3
boundary                p p p
newton                  on
atom_style              full
#processors             2 2 2

kspace_style   		    pppm 1.0e-6
pair_style              lj/cut/coul/long 12.0 12.0

bond_style              harmonic
angle_style             harmonic
dihedral_style          harmonic
improper_style          cvff

# (2) Atom definition: read the .lammps05 file as data.class2
read_data               MgO-Water-close-LAMMPS.data
  orthogonal box = (-1.05362 -1.03472 -126.019) to (20.0014 20.0203 145.036)
  reading atoms ...
  1003 atoms
  scanning bonds ...
  scanning angles ...
  reading bonds ...
  2 bonds
  reading angles ...
  1 angles
#change_box      	    all triclinic

# (3) Settings
neighbor                2.0 bin
neigh_modify 		    every 2 delay 10 check yes page 1000000 one 40000
special_bonds           lj/coul 0.0 0.0 1.0

# (4) Minimization: con.grad. (cg)/steep.desc. (sd, somewt. more stable)
thermo_style            custom step temp pe ke etotal enthalpy evdwl ecoul epair ebond eangle edihed eimp emol elong etail lx ly lz cella cellb cellc cellalpha cellbeta cellgamma vol density pxx pyy pzz pxy pxz pyz press
thermo                  5
dump                    0 all atom 5 whole.min
minimize                0.00000001 0.00000001 50000 50000
PPPM initialization ...
  G vector (1/distance) = 0.278917
  grid = 30 30 192
  stencil order = 5
  estimated absolute RMS force accuracy = 0.000374795
  estimated relative force accuracy = 1.12868e-06
  3d grid and FFT values/proc = 272431 172800
  1 neighbor list requests
  update every 1 steps, delay 0 steps, check yes
Step Temp PotEng KinEng TotEng Enthalpy E_vdwl E_coul E_pair E_bond E_angle E_dihed E_impro E_mol E_long E_tail Lx Ly Lz Cella Cellb Cellc CellAlpha CellBeta CellGamma Volume Density Pxx Pyy Pzz Pxy Pxz Pyz Press
0            0   -148423.28            0   -148423.28   -153342.09    5278.6845   -94937.112   -148423.28 1.8319784e-08 7.0966284e-07            0            0 7.2798262e-07   -58764.854            0       21.055       21.055      271.055       21.055       21.055      271.055           90           90           90    120162.21   0.27873511   -3319.1471   -3319.2178   -1782.1232   -14.139238   -7.2234715   -7.1346657   -2806.8294
Loop time of 2.90835 on 1 procs for 30 steps with 1003 atoms

Minimization stats:
  Stopping criterion = energy tolerance
  Energy initial, next-to-last, final =
  Force two-norm initial, final = 211.003 1.60614
  Force max component initial, final = 164.776 0.79679
  Final line search alpha, max atom move = 0.273053 0.217566
  Iterations, force evaluations = 30 58

Pair  time (%) = 0.667086 (22.9369)
Bond  time (%) = 0.000319958 (0.0110014)
Kspce time (%) = 2.23172 (76.7351)
Neigh time (%) = 0 (0)
Comm  time (%) = 0.00207973 (0.0715088)
Outpt time (%) = 0.00445604 (0.153216)
Other time (%) = 0.00268292 (0.0922491)

undump                  0
reset_timestep          0

# (5) NPT Dynamics 1 (pressure = 1 atm in x, y, and z directions of an orthogonal box)
timestep                1.0
velocity                all create 170 4928459 rot yes dist gaussian
fix                     7 all nvt temp 170.0 170.0 100.0 #aniso 1.0 1.0 500

# Full stress tensor incl. xy, yz, xz requires declaration as a triclinic box with tilt factors
thermo_style            custom step temp pe ke etotal enthalpy evdwl ecoul epair ebond eangle edihed eimp emol elong etail lx ly lz cella cellb cellc cellalpha cellbeta cellgamma vol density pxx pyy pzz pxy pxz pyz press
thermo                  50
dump			        1 all atom 2000 trajectory_arc.lammpstrj

run                     200000
PPPM initialization ...
  G vector (1/distance) = 0.278917
  grid = 30 30 192
  stencil order = 5
  estimated absolute RMS force accuracy = 0.000374795
  estimated relative force accuracy = 1.12868e-06
  3d grid and FFT values/proc = 272431 172800
  1 neighbor list requests
  update every 2 steps, delay 10 steps, check yes
Step Temp PotEng KinEng TotEng Enthalpy E_vdwl E_coul E_pair E_bond E_angle E_dihed E_impro E_mol E_long E_tail Lx Ly Lz Cella Cellb Cellc CellAlpha CellBeta CellGamma Volume Density Pxx Pyy Pzz Pxy Pxz Pyz Press
0          170   -148463.61    507.75118   -147955.86   -151187.46    5567.2743   -95267.455   -148464.08   0.37402046  0.097473874            0            0   0.47149434     -58763.9            0       21.055       21.055      271.055       21.055       21.055      271.055           90           90           90    120162.21   0.27873511   -2842.8522   -2838.1288    148.80581   -1.0050667  -0.36388278    10.077931   -1844.0584
Averages over the last 2001 of 4001 rows, steps 100000 to 200000:
Temp PotEng KinEng TotEng Enthalpy E_vdwl E_coul E_pair E_bond E_angle E_dihed E_impro E_mol E_long E_tail Lx Ly Lz Cella Cellb Cellc CellAlpha CellBeta CellGamma Volume Density Pxx Pyy Pzz Pxy Pxz Pyz Press
170.083 -147952 508 -147444 -149673 5816.2 -95010.1 -147953 0.400012 0.173896 0 0 0.573908 -58759.1 0 21.055 21.055 271.055 21.055 21.055 271.055 90 90 90 120162 0.278735 -1909.5 -1905.99 1.00295 -0.275995 -0.456986 -0.051739 -1271.49
Loop time of 8996.23 on 1 procs for 200000 steps with 1003 atoms

Pair  time (%) = 1590.46 (17.6792)
Bond  time (%) = 0.739039 (0.00821499)
Kspce time (%) = 7382.36 (82.0607)
Neigh time (%) = 7.02478 (0.0780859)
Comm  time (%) = 7.23495 (0.0804221)
Outpt time (%) = 0.398474 (0.00442935)
Other time (%) = 8.00406 (0.0889713)
