Info: SIMULATION PARAMETERS:
Info: TIMESTEP               1
Info: NUMBER OF STEPS        0
Info: STEPS PER CYCLE        20
Info: PERIODIC CELL BASIS 1  63.165 0 0
Info: PERIODIC CELL BASIS 2  0 63.165 0
Info: PERIODIC CELL BASIS 3  0 0 121.055
Info: PERIODIC CELL CENTER   0 0 0
Info: FIRST LDB TIMESTEP     100
Info: LAST LDB TIMESTEP     -1
Info: HOM BACKGROUND SCALING 1
Info: PME BACKGROUND SCALING 1
Info: MIN ATOMS PER PATCH    40
Info: INITIAL TEMPERATURE    75
Info: CENTER OF MASS MOVING INITIALLY? NO
Info: DIELECTRIC             1
Info: EXCLUDE                ONETHREE
Info: DCD FILENAME           OUT.LOG.dcd
Info: DCD FREQUENCY          5000
Info: DCD FIRST STEP         5000
Info: DCD FILE WILL CONTAIN UNIT CELL DATA
Info: XST FILENAME           OUT.LOG.xst
Info: XST FREQUENCY          2500
Info: NO VELOCITY DCD OUTPUT
Info: NO FORCE DCD OUTPUT
Info: OUTPUT FILENAME        OUT.LOG
Info: BINARY OUTPUT FILES WILL BE USED
Info: RESTART FILENAME       OUT.LOG.restart
Info: RESTART FREQUENCY      50000
Info: BINARY RESTART FILES WILL BE USED
Info: CUTOFF                 12
Info: PAIRLIST DISTANCE      14
Info: PAIRLIST SHRINK RATE   0.01
Info: PAIRLIST GROW RATE     0.01
Info: PAIRLIST TRIGGER       0.3
Info: PAIRLISTS PER CYCLE    2
Info: PAIRLISTS ENABLED
Info: MARGIN                 0
Info: HYDROGEN GROUP CUTOFF  2.5
Info: PATCH DIMENSION        16.5
Info: ENERGY OUTPUT STEPS    250
Info: CROSSTERM ENERGY INCLUDED IN DIHEDRAL
Info: TIMING OUTPUT STEPS    250
Info: PRESSURE OUTPUT STEPS  250
Info: LANGEVIN DYNAMICS ACTIVE
Info: LANGEVIN TEMPERATURE   75
Info: LANGEVIN USING BBK INTEGRATOR
Info: LANGEVIN DAMPING COEFFICIENT IS 1 INVERSE PS
Info: LANGEVIN DYNAMICS APPLIED TO HYDROGENS
Info: PARTICLE MESH EWALD (PME) ACTIVE
Info: PME TOLERANCE               1e-06
Info: PME EWALD COEFFICIENT       0.257952
Info: PME INTERPOLATION ORDER     4
Info: PME GRID DIMENSIONS         64 64 128
Info: PME MAXIMUM GRID SPACING    1
Info: FULL ELECTROSTATIC EVALUATION FREQUENCY      1
Info: USING VERLET I (r-RESPA) MTS SCHEME.
Info: C1 SPLITTING OF LONG RANGE ELECTROSTATICS
Info: PLACING ATOMS IN PATCHES BY HYDROGEN GROUPS
Info: RANDOM NUMBER SEED     1659565254
Info: USE HYDROGEN BONDS?    NO
Info: COORDINATE PDB         C2H6-monolayer.pdb
Info: STRUCTURE FILE         C2H6-monolayer.psf
Info: PARAMETER file: CHARMM format!
Info: PARAMETERS             par_interface.frc
Info: PARAMETERS             par_all22_prot.prm
Info: USING ARITHMETIC MEAN TO COMBINE L-J SIGMA PARAMETERS
Info: SUMMARY OF PARAMETERS:
Info: 235 BONDS
Info: 656 ANGLES
Info: 1132 DIHEDRAL
Info: 34 IMPROPER
Info: 6 CROSSTERM
Info: 157 VDW
Info: 0 VDW_PAIRS
Info: 0 NBTHOLE_PAIRS
Info: STRUCTURE SUMMARY:
Info: 10632 ATOMS
Info: 1428 BONDS
Info: 2448 ANGLES
Info: 1836 DIHEDRALS
Info: 0 IMPROPERS
Info: 0 CROSSTERMS
Info: 0 EXCLUSIONS
Info: 31896 DEGREES OF FREEDOM
Info: 9408 HYDROGEN GROUPS
Info: 4 ATOMS IN LARGEST HYDROGEN GROUP
Info: 9408 MIGRATION GROUPS
Info: 4 ATOMS IN LARGEST MIGRATION GROUP
Info: TOTAL MASS = 187504 amu
Info: TOTAL CHARGE = 0 e
Info: MASS DENSITY = 0.644664 g/cm^3
Info: ATOM DENSITY = 0.022013 atoms/A^3
Info: ADDED 3876 IMPLICIT EXCLUSIONS
Info: NONBONDED TABLE R-SQUARED SPACING: 0.0625
Info: NONBONDED TABLE SIZE: 769 POINTS
Info: REMOVING COM VELOCITY 0.00960463 -0.0206194 -0.00660309
TCL: Minimizing for 200 steps
ETITLE: TS BOND ANGLE DIHED IMPRP ELECT VDW BOUNDARY MISC KINETIC TOTAL TEMP POTENTIAL TOTAL3 TEMPAVG PRESSURE GPRESSURE VOLUME PRESSAVG GPRESSAVG
ENERGY: 0 108.6014 167.3596 17.0098 0.0000 -1383802.5829 50683.0136 0.0000 0.0000 0.0000 -1332826.5984 0.0000 -1332826.5984 -1332826.5984 0.0000 -4168.8796 -4186.0842 482987.3242 -4168.8796 -4186.0842
ENERGY: 40 1.9611 6.3491 9.7952 0.0000 -1384037.0953 48934.6751 0.0000 0.0000 0.0000 -1335084.3147 0.0000 -1335084.3147 -1335084.3147 0.0000 -5254.5780 -5285.0498 482987.3242 -5254.5780 -5285.0498
ENERGY: 80 280.0490 113.1495 1.4641 0.0000 -1384142.0607 49170.5510 0.0000 0.0000 0.0000 -1334576.8470 0.0000 -1334576.8470 -1334576.8470 0.0000 -5153.2801 -5130.6822 482987.3242 -5153.2801 -5130.6822
ENERGY: 120 0.8795 5.6667 0.2753 0.0000 -1384148.4449 48968.4748 0.0000 0.0000 0.0000 -1335173.1486 0.0000 -1335173.1486 -1335173.1486 0.0000 -5214.5815 -5249.9688 482987.3242 -5214.5815 -5249.9688
ENERGY: 160 0.4670 5.7142 0.3793 0.0000 -1384152.8411 48920.7982 0.0000 0.0000 0.0000 -1335225.4823 0.0000 -1335225.4823 -1335225.4823 0.0000 -5224.8080 -5261.0222 482987.3242 -5224.8080 -5261.0222
ENERGY: 200 0.5127 5.6324 0.1916 0.0000 -1384163.8842 48911.4494 0.0000 0.0000 0.0000 -1335246.0980 0.0000 -1335246.0980 -1335246.0980 0.0000 -5210.5429 -5213.4463 482987.3242 -5210.5429 -5213.4463
TCL: Running for 500000 steps
Info: Configuration file is ++local
ETITLE: TS BOND ANGLE DIHED IMPRP ELECT VDW BOUNDARY MISC KINETIC TOTAL TEMP POTENTIAL TOTAL3 TEMPAVG PRESSURE GPRESSURE VOLUME PRESSAVG GPRESSAVG
ENERGY: 250 18.4253 106.6370 4.0021 0.0000 -1383975.1069 49797.1099 0.0000 0.0000 1335.6344 -1332713.2983 42.1446 -1334048.9326 -1332708.8750 40.6799 -4585.3694 -4551.5448 482987.3242 -4544.7604 -4546.7869
ENERGY: 100250 102.7102 173.5322 16.0867 0.0000 -1383646.0069 50266.2588 0.0000 0.0000 2377.8860 -1330709.5328 75.0318 -1333087.4189 -1330704.6500 74.9920 -4025.1651 -4032.9610 482987.3242 -4041.5240 -4041.7464
ENERGY: 200250 101.3906 164.0050 17.8860 0.0000 -1383688.3911 50296.9950 0.0000 0.0000 2381.9978 -1330726.1168 75.1615 -1333108.1146 -1330721.5226 75.0937 -4026.4384 -4013.1182 482987.3242 -4043.2466 -4043.1793
ENERGY: 300000 104.7529 165.7924 18.2168 0.0000 -1383544.9290 50151.7230 0.0000 0.0000 2380.9451 -1330723.4989 75.1283 -1333104.4440 -1330718.1843 75.2067 -4117.5678 -4098.5881 482987.3242 -4007.3620 -4007.5260
ENERGY: 400000 104.8204 162.0257 15.0788 0.0000 -1383688.6079 50292.6269 0.0000 0.0000 2415.4966 -1330698.5595 76.2185 -1333114.0560 -1330694.0565 75.6537 -4052.0439 -4015.7246 482987.3242 -3989.8212 -3990.0326
ENERGY: 500000 99.3707 157.7739 17.0600 0.0000 -1383722.5632 50303.6357 0.0000 0.0000 2370.6206 -1330774.1023 74.8025 -1333144.7229 -1330769.6939 74.1763 -3998.3915 -3991.7322 482987.3242 -4051.4750 -4051.7339
