Info: SIMULATION PARAMETERS:
Info: TIMESTEP               1
Info: NUMBER OF STEPS        0
Info: STEPS PER CYCLE        20
Info: PERIODIC CELL BASIS 1  63.165 0 0
Info: PERIODIC CELL BASIS 2  0 63.165 0
Info: PERIODIC CELL BASIS 3  0 0 121.055
Info: PERIODIC CELL CENTER   0 0 0
Info: FIRST LDB TIMESTEP     100
Info: LAST LDB TIMESTEP     -1
Info: HOM BACKGROUND SCALING 1
Info: PME BACKGROUND SCALING 1
Info: MIN ATOMS PER PATCH    40
Info: INITIAL TEMPERATURE    75
Info: CENTER OF MASS MOVING INITIALLY? NO
Info: DIELECTRIC             1
Info: EXCLUDE                ONETHREE
Info: DCD FILENAME           OUT.LOG.dcd
Info: DCD FREQUENCY          5000
Info: DCD FIRST STEP         5000
Info: DCD FILE WILL CONTAIN UNIT CELL DATA
Info: XST FILENAME           OUT.LOG.xst
Info: XST FREQUENCY          2500
Info: NO VELOCITY DCD OUTPUT
Info: NO FORCE DCD OUTPUT
Info: OUTPUT FILENAME        OUT.LOG
Info: BINARY OUTPUT FILES WILL BE USED
Info: RESTART FILENAME       OUT.LOG.restart
Info: RESTART FREQUENCY      50000
Info: BINARY RESTART FILES WILL BE USED
Info: CUTOFF                 12
Info: PAIRLIST DISTANCE      14
Info: PAIRLIST SHRINK RATE   0.01
Info: PAIRLIST GROW RATE     0.01
Info: PAIRLIST TRIGGER       0.3
Info: PAIRLISTS PER CYCLE    2
Info: PAIRLISTS ENABLED
Info: MARGIN                 0
Info: HYDROGEN GROUP CUTOFF  2.5
Info: PATCH DIMENSION        16.5
Info: ENERGY OUTPUT STEPS    250
Info: CROSSTERM ENERGY INCLUDED IN DIHEDRAL
Info: TIMING OUTPUT STEPS    250
Info: PRESSURE OUTPUT STEPS  250
Info: LANGEVIN DYNAMICS ACTIVE
Info: LANGEVIN TEMPERATURE   75
Info: LANGEVIN USING BBK INTEGRATOR
Info: LANGEVIN DAMPING COEFFICIENT IS 1 INVERSE PS
Info: LANGEVIN DYNAMICS APPLIED TO HYDROGENS
Info: PARTICLE MESH EWALD (PME) ACTIVE
Info: PME TOLERANCE               1e-06
Info: PME EWALD COEFFICIENT       0.257952
Info: PME INTERPOLATION ORDER     4
Info: PME GRID DIMENSIONS         64 64 128
Info: PME MAXIMUM GRID SPACING    1
Info: FULL ELECTROSTATIC EVALUATION FREQUENCY      1
Info: USING VERLET I (r-RESPA) MTS SCHEME.
Info: C1 SPLITTING OF LONG RANGE ELECTROSTATICS
Info: PLACING ATOMS IN PATCHES BY HYDROGEN GROUPS
Info: RANDOM NUMBER SEED     1659573008
Info: USE HYDROGEN BONDS?    NO
Info: COORDINATE PDB         C2H6-halflayer.pdb
Info: STRUCTURE FILE         C2H6-halflayer.psf
Info: PARAMETER file: CHARMM format!
Info: PARAMETERS             par_interface.frc
Info: PARAMETERS             par_all22_prot.prm
Info: USING ARITHMETIC MEAN TO COMBINE L-J SIGMA PARAMETERS
Info: SUMMARY OF PARAMETERS:
Info: 235 BONDS
Info: 656 ANGLES
Info: 1132 DIHEDRAL
Info: 34 IMPROPER
Info: 6 CROSSTERM
Info: 157 VDW
Info: 0 VDW_PAIRS
Info: 0 NBTHOLE_PAIRS
Info: STRUCTURE SUMMARY:
Info: 9816 ATOMS
Info: 714 BONDS
Info: 1224 ANGLES
Info: 918 DIHEDRALS
Info: 0 IMPROPERS
Info: 0 CROSSTERMS
Info: 0 EXCLUSIONS
Info: 29448 DEGREES OF FREEDOM
Info: 9204 HYDROGEN GROUPS
Info: 4 ATOMS IN LARGEST HYDROGEN GROUP
Info: 9204 MIGRATION GROUPS
Info: 4 ATOMS IN LARGEST MIGRATION GROUP
Info: TOTAL MASS = 184437 amu
Info: TOTAL CHARGE = 0 e
Info: MASS DENSITY = 0.63412 g/cm^3
Info: ATOM DENSITY = 0.0203235 atoms/A^3
Info: ADDED 1938 IMPLICIT EXCLUSIONS
Info: NONBONDED TABLE R-SQUARED SPACING: 0.0625
Info: NONBONDED TABLE SIZE: 769 POINTS
Info: REMOVING COM VELOCITY 0.00217898 0.0158211 -0.000240532
TCL: Minimizing for 200 steps
ETITLE: TS BOND ANGLE DIHED IMPRP ELECT VDW BOUNDARY MISC KINETIC TOTAL TEMP POTENTIAL TOTAL3 TEMPAVG PRESSURE GPRESSURE VOLUME PRESSAVG GPRESSAVG
ENERGY: 0 54.4341 84.3507 7.7389 0.0000 -1384714.7657 51240.5261 0.0000 0.0000 0.0000 -1333327.7159 0.0000 -1333327.7159 -1333327.7159 0.0000 -4093.8247 -4124.5937 482987.3242 -4093.8247 -4124.5937
ENERGY: 40 0.5230 2.9330 4.0611 0.0000 -1385047.2892 49593.1000 0.0000 0.0000 0.0000 -1335446.6720 0.0000 -1335446.6720 -1335446.6720 0.0000 -5128.5826 -5147.0007 482987.3242 -5128.5826 -5147.0007
ENERGY: 80 0.5636 2.6916 0.2677 0.0000 -1385327.9422 49845.0996 0.0000 0.0000 0.0000 -1335479.3197 0.0000 -1335479.3197 -1335479.3197 0.0000 -4953.7590 -4975.8227 482987.3242 -4953.7590 -4975.8227
ENERGY: 120 0.4673 2.6770 0.1471 0.0000 -1385299.6760 49805.3396 0.0000 0.0000 0.0000 -1335491.0450 0.0000 -1335491.0450 -1335491.0450 0.0000 -4980.5317 -4996.7500 482987.3242 -4980.5317 -4996.7500
ENERGY: 160 0.4050 2.6632 0.0814 0.0000 -1385229.0736 49718.1646 0.0000 0.0000 0.0000 -1335507.7594 0.0000 -1335507.7594 -1335507.7594 0.0000 -5030.0478 -5048.0945 482987.3242 -5030.0478 -5048.0945
ENERGY: 200 0.3989 2.6962 0.0802 0.0000 -1385296.1634 49774.9885 0.0000 0.0000 0.0000 -1335517.9997 0.0000 -1335517.9997 -1335517.9997 0.0000 -4986.2285 -4982.9318 482987.3242 -4986.2285 -4982.9318
TCL: Running for 500000 steps
Info: Configuration file is ++local
ETITLE: TS BOND ANGLE DIHED IMPRP ELECT VDW BOUNDARY MISC KINETIC TOTAL TEMP POTENTIAL TOTAL3 TEMPAVG PRESSURE GPRESSURE VOLUME PRESSAVG GPRESSAVG
ENERGY: 250 8.7974 55.4363 1.4114 0.0000 -1385083.2985 50617.8833 0.0000 0.0000 1186.1723 -1333213.5978 40.5399 -1334399.7701 -1333211.5802 39.5310 -4390.7500 -4364.0376 482987.3242 -4346.4455 -4346.3084
ENERGY: 100250 53.5016 82.3017 8.3273 0.0000 -1384475.6545 50872.6180 0.0000 0.0000 2173.6966 -1331285.2095 74.2905 -1333458.9060 -1331281.8269 75.1426 -4022.5051 -4019.1155 482987.3242 -4035.2800 -4035.2949
ENERGY: 200250 53.9336 82.5595 7.8605 0.0000 -1384442.3776 50808.1181 0.0000 0.0000 2154.5558 -1331335.3501 73.6364 -1333489.9059 -1331333.4122 74.2344 -4049.2185 -4064.4507 482987.3242 -4044.4636 -4044.4572
ENERGY: 300000 49.1430 86.4426 9.6225 0.0000 -1384449.0351 50778.0313 0.0000 0.0000 2208.1046 -1331317.6911 75.4665 -1333525.7957 -1331315.2831 74.5598 -4062.9674 -4074.3605 482987.3242 -4023.3454 -4023.4924
ENERGY: 400000 53.8767 78.7676 9.9127 0.0000 -1384482.4365 50811.2389 0.0000 0.0000 2194.9264 -1331333.7141 75.0161 -1333528.6406 -1331332.0565 74.7552 -4067.9748 -4061.3758 482987.3242 -4041.5376 -4041.3768
ENERGY: 500000 52.3108 89.0354 10.9705 0.0000 -1384570.0111 50928.3615 0.0000 0.0000 2153.2695 -1331336.0633 73.5924 -1333489.3328 -1331333.9798 74.6336 -3992.9104 -3996.4749 482987.3242 -4041.2483 -4041.2534
