#======================================================================

# CRYSTAL DATA

#----------------------------------------------------------------------

data_VESTA_phase_1


_chemical_name_common                  ''
_cell_length_a                         3.50580
_cell_length_b                         7.83920
_cell_length_c                         62.71362
_cell_angle_alpha                      90
_cell_angle_beta                       90
_cell_angle_gamma                      90
_space_group_name_H-M_alt              'P 1'
_space_group_IT_number                 1

loop_
_space_group_symop_operation_xyz
   'x, y, z'

loop_
   _atom_site_label
   _atom_site_occupancy
   _atom_site_fract_x
   _atom_site_fract_y
   _atom_site_fract_z
   _atom_site_adp_type
   _atom_site_B_iso_or_equiv
   _atom_site_type_symbol
   Ni1        1.0     0.000000      0.000000      0.500000     Biso  1.000000 Ni
   Ni2        1.0     0.000000      0.000000      0.625000     Biso  1.000000 Ni
   Ni3        1.0     0.000000      0.000000      0.750000     Biso  1.000000 Ni
   Ni4        1.0     0.000000      0.000000      0.875000     Biso  1.000000 Ni
   Ni5        1.0     0.000000      0.400000      0.525000     Biso  1.000000 Ni
   Ni6        1.0     0.000000      0.400000      0.650000     Biso  1.000000 Ni
   Ni7        1.0     0.000000      0.400000      0.775000     Biso  1.000000 Ni
   Ni8        1.0     0.000000      0.400000      0.900000     Biso  1.000000 Ni
   Ni9        1.0     0.000000      0.600000      0.600000     Biso  1.000000 Ni
   Ni10       1.0     0.000000      0.600000      0.725000     Biso  1.000000 Ni
   Ni11       1.0     0.000000      0.600000      0.850000     Biso  1.000000 Ni
   Ni12       1.0     0.000000      0.600000      0.975000     Biso  1.000000 Ni
   Ni13       1.0     0.000000      0.200000      0.575000     Biso  1.000000 Ni
   Ni14       1.0     0.000000      0.200000      0.700000     Biso  1.000000 Ni
   Ni15       1.0     0.000000      0.200000      0.825000     Biso  1.000000 Ni
   Ni16       1.0     0.000000      0.200000      0.950000     Biso  1.000000 Ni
   Ni17       1.0     0.000000      0.800000      0.550000     Biso  1.000000 Ni
   Ni18       1.0     0.000000      0.800000      0.675000     Biso  1.000000 Ni
   Ni19       1.0     0.000000      0.800000      0.800000     Biso  1.000000 Ni
   Ni20       1.0     0.000000      0.800000      0.925000     Biso  1.000000 Ni
   Ni21       1.0     0.000000      0.700000      0.512500     Biso  1.000000 Ni
   Ni22       1.0     0.000000      0.700000      0.637500     Biso  1.000000 Ni
   Ni23       1.0     0.000000      0.700000      0.762500     Biso  1.000000 Ni
   Ni24       1.0     0.000000      0.700000      0.887500     Biso  1.000000 Ni
   Ni25       1.0     0.000000      0.100000      0.537500     Biso  1.000000 Ni
   Ni26       1.0     0.000000      0.100000      0.662500     Biso  1.000000 Ni
   Ni27       1.0     0.000000      0.100000      0.787500     Biso  1.000000 Ni
   Ni28       1.0     0.000000      0.100000      0.912500     Biso  1.000000 Ni
   Ni29       1.0     0.000000      0.300000      0.612500     Biso  1.000000 Ni
   Ni30       1.0     0.000000      0.300000      0.737500     Biso  1.000000 Ni
   Ni31       1.0     0.000000      0.300000      0.862500     Biso  1.000000 Ni
   Ni32       1.0     0.000000      0.300000      0.987500     Biso  1.000000 Ni
   Ni33       1.0     0.000000      0.900000      0.587500     Biso  1.000000 Ni
   Ni34       1.0     0.000000      0.900000      0.712500     Biso  1.000000 Ni
   Ni35       1.0     0.000000      0.900000      0.837500     Biso  1.000000 Ni
   Ni36       1.0     0.000000      0.900000      0.962500     Biso  1.000000 Ni
   Ni37       1.0     0.000000      0.500000      0.562500     Biso  1.000000 Ni
   Ni38       1.0     0.000000      0.500000      0.687500     Biso  1.000000 Ni
   Ni39       1.0     0.000000      0.500000      0.812500     Biso  1.000000 Ni
   Ni40       1.0     0.000000      0.500000      0.937500     Biso  1.000000 Ni
   Ni41       1.0     0.500000      0.800000      0.612500     Biso  1.000000 Ni
   Ni42       1.0     0.500000      0.800000      0.737500     Biso  1.000000 Ni
   Ni43       1.0     0.500000      0.800000      0.862500     Biso  1.000000 Ni
   Ni44       1.0     0.500000      0.800000      0.987500     Biso  1.000000 Ni
   Ni45       1.0     0.500000      0.200000      0.512500     Biso  1.000000 Ni
   Ni46       1.0     0.500000      0.200000      0.637500     Biso  1.000000 Ni
   Ni47       1.0     0.500000      0.200000      0.762500     Biso  1.000000 Ni
   Ni48       1.0     0.500000      0.200000      0.887500     Biso  1.000000 Ni
   Ni49       1.0     0.500000      0.400000      0.587500     Biso  1.000000 Ni
   Ni50       1.0     0.500000      0.400000      0.712500     Biso  1.000000 Ni
   Ni51       1.0     0.500000      0.400000      0.837500     Biso  1.000000 Ni
   Ni52       1.0     0.500000      0.400000      0.962500     Biso  1.000000 Ni
   Ni53       1.0     0.500000      0.000000      0.562500     Biso  1.000000 Ni
   Ni54       1.0     0.500000      0.000000      0.687500     Biso  1.000000 Ni
   Ni55       1.0     0.500000      0.000000      0.812500     Biso  1.000000 Ni
   Ni56       1.0     0.500000      0.000000      0.937500     Biso  1.000000 Ni
   Ni57       1.0     0.500000      0.600000      0.537500     Biso  1.000000 Ni
   Ni58       1.0     0.500000      0.600000      0.662500     Biso  1.000000 Ni
   Ni59       1.0     0.500000      0.600000      0.787500     Biso  1.000000 Ni
   Ni60       1.0     0.500000      0.600000      0.912500     Biso  1.000000 Ni
   Ni61       1.0     0.500000      0.900000      0.525000     Biso  1.000000 Ni
   Ni62       1.0     0.500000      0.900000      0.650000     Biso  1.000000 Ni
   Ni63       1.0     0.500000      0.900000      0.775000     Biso  1.000000 Ni
   Ni64       1.0     0.500000      0.900000      0.900000     Biso  1.000000 Ni
   Ni65       1.0     0.500000      0.300000      0.550000     Biso  1.000000 Ni
   Ni66       1.0     0.500000      0.300000      0.675000     Biso  1.000000 Ni
   Ni67       1.0     0.500000      0.300000      0.800000     Biso  1.000000 Ni
   Ni68       1.0     0.500000      0.300000      0.925000     Biso  1.000000 Ni
   Ni69       1.0     0.500000      0.500000      0.500000     Biso  1.000000 Ni
   Ni70       1.0     0.500000      0.500000      0.625000     Biso  1.000000 Ni
   Ni71       1.0     0.500000      0.500000      0.750000     Biso  1.000000 Ni
   Ni72       1.0     0.500000      0.500000      0.875000     Biso  1.000000 Ni
   Ni73       1.0     0.500000      0.100000      0.600000     Biso  1.000000 Ni
   Ni74       1.0     0.500000      0.100000      0.725000     Biso  1.000000 Ni
   Ni75       1.0     0.500000      0.100000      0.850000     Biso  1.000000 Ni
   Ni76       1.0     0.500000      0.100000      0.975000     Biso  1.000000 Ni
   Ni77       1.0     0.500000      0.700000      0.575000     Biso  1.000000 Ni
   Ni78       1.0     0.500000      0.700000      0.700000     Biso  1.000000 Ni
   Ni79       1.0     0.500000      0.700000      0.825000     Biso  1.000000 Ni
   Ni80       1.0     0.500000      0.700000      0.950000     Biso  1.000000 Ni
   Co1        1.0     0.000000      0.000000      0.000000     Biso  1.000000 Co
   Co2        1.0     0.000000      0.000000      0.125544     Biso  1.000000 Co
   Co3        1.0     0.000000      0.000000      0.251088     Biso  1.000000 Co
   Co4        1.0     0.000000      0.000000      0.376632     Biso  1.000000 Co
   Co5        1.0     0.000000      0.602611      0.025109     Biso  1.000000 Co
   Co6        1.0     0.000000      0.602611      0.150653     Biso  1.000000 Co
   Co7        1.0     0.000000      0.602611      0.276197     Biso  1.000000 Co
   Co8        1.0     0.000000      0.602611      0.401740     Biso  1.000000 Co
   Co9        1.0     0.000000      0.401740      0.100435     Biso  1.000000 Co
   Co10       1.0     0.000000      0.401740      0.225979     Biso  1.000000 Co
   Co11       1.0     0.000000      0.401740      0.351523     Biso  1.000000 Co
   Co12       1.0     0.000000      0.401740      0.477067     Biso  1.000000 Co
   Co13       1.0     0.000000      0.803481      0.075326     Biso  1.000000 Co
   Co14       1.0     0.000000      0.803481      0.200870     Biso  1.000000 Co
   Co15       1.0     0.000000      0.803481      0.326414     Biso  1.000000 Co
   Co16       1.0     0.000000      0.803481      0.451958     Biso  1.000000 Co
   Co17       1.0     0.000000      0.200870      0.050218     Biso  1.000000 Co
   Co18       1.0     0.000000      0.200870      0.175761     Biso  1.000000 Co
   Co19       1.0     0.000000      0.200870      0.301305     Biso  1.000000 Co
   Co20       1.0     0.000000      0.200870      0.426849     Biso  1.000000 Co
   Co21       1.0     0.000000      0.301305      0.012554     Biso  1.000000 Co
   Co22       1.0     0.000000      0.301305      0.138098     Biso  1.000000 Co
   Co23       1.0     0.000000      0.301305      0.263642     Biso  1.000000 Co
   Co24       1.0     0.000000      0.301305      0.389186     Biso  1.000000 Co
   Co25       1.0     0.000000      0.903916      0.037663     Biso  1.000000 Co
   Co26       1.0     0.000000      0.903916      0.163207     Biso  1.000000 Co
   Co27       1.0     0.000000      0.903916      0.288751     Biso  1.000000 Co
   Co28       1.0     0.000000      0.903916      0.414295     Biso  1.000000 Co
   Co29       1.0     0.000000      0.703046      0.112989     Biso  1.000000 Co
   Co30       1.0     0.000000      0.703046      0.238533     Biso  1.000000 Co
   Co31       1.0     0.000000      0.703046      0.364077     Biso  1.000000 Co
   Co32       1.0     0.000000      0.703046      0.489621     Biso  1.000000 Co
   Co33       1.0     0.000000      0.100435      0.087881     Biso  1.000000 Co
   Co34       1.0     0.000000      0.100435      0.213425     Biso  1.000000 Co
   Co35       1.0     0.000000      0.100435      0.338968     Biso  1.000000 Co
   Co36       1.0     0.000000      0.100435      0.464512     Biso  1.000000 Co
   Co37       1.0     0.000000      0.502176      0.062772     Biso  1.000000 Co
   Co38       1.0     0.000000      0.502176      0.188316     Biso  1.000000 Co
   Co39       1.0     0.000000      0.502176      0.313860     Biso  1.000000 Co
   Co40       1.0     0.000000      0.502176      0.439404     Biso  1.000000 Co
   Co41       1.0     0.502176      0.200870      0.112989     Biso  1.000000 Co
   Co42       1.0     0.502176      0.200870      0.238533     Biso  1.000000 Co
   Co43       1.0     0.502176      0.200870      0.364077     Biso  1.000000 Co
   Co44       1.0     0.502176      0.200870      0.489621     Biso  1.000000 Co
   Co45       1.0     0.502176      0.803481      0.012554     Biso  1.000000 Co
   Co46       1.0     0.502176      0.803481      0.138098     Biso  1.000000 Co
   Co47       1.0     0.502176      0.803481      0.263642     Biso  1.000000 Co
   Co48       1.0     0.502176      0.803481      0.389186     Biso  1.000000 Co
   Co49       1.0     0.502176      0.602611      0.087881     Biso  1.000000 Co
   Co50       1.0     0.502176      0.602611      0.213425     Biso  1.000000 Co
   Co51       1.0     0.502176      0.602611      0.338968     Biso  1.000000 Co
   Co52       1.0     0.502176      0.602611      0.464512     Biso  1.000000 Co
   Co53       1.0     0.502176      0.000000      0.062772     Biso  1.000000 Co
   Co54       1.0     0.502176      0.000000      0.188316     Biso  1.000000 Co
   Co55       1.0     0.502176      0.000000      0.313860     Biso  1.000000 Co
   Co56       1.0     0.502176      0.000000      0.439404     Biso  1.000000 Co
   Co57       1.0     0.502176      0.401740      0.037663     Biso  1.000000 Co
   Co58       1.0     0.502176      0.401740      0.163207     Biso  1.000000 Co
   Co59       1.0     0.502176      0.401740      0.288751     Biso  1.000000 Co
   Co60       1.0     0.502176      0.401740      0.414295     Biso  1.000000 Co
   Co61       1.0     0.502176      0.100435      0.025109     Biso  1.000000 Co
   Co62       1.0     0.502176      0.100435      0.150653     Biso  1.000000 Co
   Co63       1.0     0.502176      0.100435      0.276197     Biso  1.000000 Co
   Co64       1.0     0.502176      0.100435      0.401740     Biso  1.000000 Co
   Co65       1.0     0.502176      0.703046      0.050218     Biso  1.000000 Co
   Co66       1.0     0.502176      0.703046      0.175761     Biso  1.000000 Co
   Co67       1.0     0.502176      0.703046      0.301305     Biso  1.000000 Co
   Co68       1.0     0.502176      0.703046      0.426849     Biso  1.000000 Co
   Co69       1.0     0.502176      0.502176      0.000000     Biso  1.000000 Co
   Co70       1.0     0.502176      0.502176      0.125544     Biso  1.000000 Co
   Co71       1.0     0.502176      0.502176      0.251088     Biso  1.000000 Co
   Co72       1.0     0.502176      0.502176      0.376632     Biso  1.000000 Co
   Co73       1.0     0.502176      0.903916      0.100435     Biso  1.000000 Co
   Co74       1.0     0.502176      0.903916      0.225979     Biso  1.000000 Co
   Co75       1.0     0.502176      0.903916      0.351523     Biso  1.000000 Co
   Co76       1.0     0.502176      0.903916      0.477067     Biso  1.000000 Co
   Co77       1.0     0.502176      0.301305      0.075326     Biso  1.000000 Co
   Co78       1.0     0.502176      0.301305      0.200870     Biso  1.000000 Co
   Co79       1.0     0.502176      0.301305      0.326414     Biso  1.000000 Co
   Co80       1.0     0.502176      0.301305      0.451958     Biso  1.000000 Co
