Info: SIMULATION PARAMETERS:
Info: TIMESTEP               1
Info: NUMBER OF STEPS        0
Info: STEPS PER CYCLE        20
Info: PERIODIC CELL BASIS 1  63.165 0 0
Info: PERIODIC CELL BASIS 2  0 63.165 0
Info: PERIODIC CELL BASIS 3  0 0 121.055
Info: PERIODIC CELL CENTER   0 0 0
Info: FIRST LDB TIMESTEP     100
Info: LAST LDB TIMESTEP     -1
Info: HOM BACKGROUND SCALING 1
Info: PME BACKGROUND SCALING 1
Info: MIN ATOMS PER PATCH    40
Info: INITIAL TEMPERATURE    175
Info: CENTER OF MASS MOVING INITIALLY? NO
Info: DIELECTRIC             1
Info: EXCLUDE                ONETHREE
Info: DCD FILENAME           OUT.LOG.dcd
Info: DCD FREQUENCY          5000
Info: DCD FIRST STEP         5000
Info: DCD FILE WILL CONTAIN UNIT CELL DATA
Info: XST FILENAME           OUT.LOG.xst
Info: XST FREQUENCY          2500
Info: NO VELOCITY DCD OUTPUT
Info: NO FORCE DCD OUTPUT
Info: OUTPUT FILENAME        OUT.LOG
Info: BINARY OUTPUT FILES WILL BE USED
Info: RESTART FILENAME       OUT.LOG.restart
Info: RESTART FREQUENCY      50000
Info: BINARY RESTART FILES WILL BE USED
Info: CUTOFF                 12
Info: PAIRLIST DISTANCE      14
Info: PAIRLIST SHRINK RATE   0.01
Info: PAIRLIST GROW RATE     0.01
Info: PAIRLIST TRIGGER       0.3
Info: PAIRLISTS PER CYCLE    2
Info: PAIRLISTS ENABLED
Info: MARGIN                 0
Info: HYDROGEN GROUP CUTOFF  2.5
Info: PATCH DIMENSION        16.5
Info: ENERGY OUTPUT STEPS    250
Info: CROSSTERM ENERGY INCLUDED IN DIHEDRAL
Info: TIMING OUTPUT STEPS    250
Info: PRESSURE OUTPUT STEPS  250
Info: LANGEVIN DYNAMICS ACTIVE
Info: LANGEVIN TEMPERATURE   175
Info: LANGEVIN USING BBK INTEGRATOR
Info: LANGEVIN DAMPING COEFFICIENT IS 1 INVERSE PS
Info: LANGEVIN DYNAMICS APPLIED TO HYDROGENS
Info: PARTICLE MESH EWALD (PME) ACTIVE
Info: PME TOLERANCE               1e-06
Info: PME EWALD COEFFICIENT       0.257952
Info: PME INTERPOLATION ORDER     4
Info: PME GRID DIMENSIONS         64 64 128
Info: PME MAXIMUM GRID SPACING    1
Info: FULL ELECTROSTATIC EVALUATION FREQUENCY      1
Info: USING VERLET I (r-RESPA) MTS SCHEME.
Info: C1 SPLITTING OF LONG RANGE ELECTROSTATICS
Info: PLACING ATOMS IN PATCHES BY HYDROGEN GROUPS
Info: RANDOM NUMBER SEED     1659579265
Info: USE HYDROGEN BONDS?    NO
Info: COORDINATE PDB         C8H18-monolayer.pdb
Info: STRUCTURE FILE         C8H18-monolayer.psf
Info: PARAMETER file: CHARMM format!
Info: PARAMETERS             par_interface.frc
Info: PARAMETERS             par_all22_prot.prm
Info: USING ARITHMETIC MEAN TO COMBINE L-J SIGMA PARAMETERS
Info: SUMMARY OF PARAMETERS:
Info: 235 BONDS
Info: 656 ANGLES
Info: 1132 DIHEDRAL
Info: 34 IMPROPER
Info: 6 CROSSTERM
Info: 157 VDW
Info: 0 VDW_PAIRS
Info: 0 NBTHOLE_PAIRS
Info: STRUCTURE SUMMARY:
Info: 10690 ATOMS
Info: 1625 BONDS
Info: 3120 ANGLES
Info: 4095 DIHEDRALS
Info: 0 IMPROPERS
Info: 0 CROSSTERMS
Info: 0 EXCLUSIONS
Info: 32070 DEGREES OF FREEDOM
Info: 9520 HYDROGEN GROUPS
Info: 4 ATOMS IN LARGEST HYDROGEN GROUP
Info: 9520 MIGRATION GROUPS
Info: 4 ATOMS IN LARGEST MIGRATION GROUP
Info: TOTAL MASS = 188795 amu
Info: TOTAL CHARGE = 0 e
Info: MASS DENSITY = 0.649102 g/cm^3
Info: ATOM DENSITY = 0.0221331 atoms/A^3
Info: ADDED 4745 IMPLICIT EXCLUSIONS
Info: NONBONDED TABLE R-SQUARED SPACING: 0.0625
Info: NONBONDED TABLE SIZE: 769 POINTS
Info: REMOVING COM VELOCITY -0.0261912 -0.00376507 -0.00825661
TCL: Minimizing for 200 steps
ETITLE: TS BOND ANGLE DIHED IMPRP ELECT VDW BOUNDARY MISC KINETIC TOTAL TEMP POTENTIAL TOTAL3 TEMPAVG PRESSURE GPRESSURE VOLUME PRESSAVG GPRESSAVG
ENERGY: 0 278.4624 490.2807 61.7427 0.0000 -1385327.0670 51175.0535 0.0000 0.0000 0.0000 -1333321.5277 0.0000 -1333321.5277 -1333321.5277 0.0000 -4147.9524 -4192.7472 482987.3242 -4147.9524 -4192.7472
ENERGY: 40 20.9780 60.5972 37.6266 0.0000 -1385624.0803 49458.1233 0.0000 0.0000 0.0000 -1336046.7552 0.0000 -1336046.7552 -1336046.7552 0.0000 -5181.1589 -5244.2736 482987.3242 -5181.1589 -5244.2736
ENERGY: 80 18.6456 49.7419 15.3912 0.0000 -1385866.4935 49663.4289 0.0000 0.0000 0.0000 -1336119.2859 0.0000 -1336119.2859 -1336119.2859 0.0000 -5025.0735 -5093.4566 482987.3242 -5025.0735 -5093.4566
ENERGY: 120 19.3033 48.0339 10.9891 0.0000 -1385817.5665 49590.5447 0.0000 0.0000 0.0000 -1336148.6954 0.0000 -1336148.6954 -1336148.6954 0.0000 -5080.4105 -5149.6842 482987.3242 -5080.4105 -5149.6842
ENERGY: 160 20.8013 50.5472 7.8902 0.0000 -1385704.2150 49457.7841 0.0000 0.0000 0.0000 -1336167.1922 0.0000 -1336167.1922 -1336167.1922 0.0000 -5175.3850 -5241.7684 482987.3242 -5175.3850 -5241.7684
ENERGY: 200 18.6574 45.9909 7.4295 0.0000 -1385786.9630 49526.0743 0.0000 0.0000 0.0000 -1336188.8110 0.0000 -1336188.8110 -1336188.8110 0.0000 -5109.0328 -5107.9657 482987.3242 -5109.0328 -5107.9657
TCL: Running for 500000 steps
Info: Configuration file is ++local
ETITLE: TS BOND ANGLE DIHED IMPRP ELECT VDW BOUNDARY MISC KINETIC TOTAL TEMP POTENTIAL TOTAL3 TEMPAVG PRESSURE GPRESSURE VOLUME PRESSAVG GPRESSAVG
ENERGY: 250 93.2333 287.7907 56.4206 0.0000 -1385144.0863 51307.3795 0.0000 0.0000 3074.7550 -1330324.5072 96.4944 -1333399.2621 -1330316.4604 91.7613 -3889.1326 -3790.4736 482987.3242 -3663.7948 -3664.8164
ENERGY: 100250 273.4504 475.6683 59.8361 0.0000 -1383627.2799 51674.4289 0.0000 0.0000 5576.5595 -1325567.3367 175.0079 -1331143.8962 -1325554.9216 174.3822 -3143.5297 -3146.7248 482987.3242 -3066.2977 -3066.3788
ENERGY: 200250 276.9089 490.7288 67.1850 0.0000 -1383972.1424 52099.6990 0.0000 0.0000 5591.2155 -1325446.4052 175.4679 -1331037.6208 -1325435.0471 174.8472 -2883.7294 -2847.0796 482987.3242 -3141.9937 -3141.7855
ENERGY: 300000 291.6547 508.5126 68.2626 0.0000 -1383752.0310 51868.6242 0.0000 0.0000 5565.3474 -1325449.6294 174.6561 -1331014.9769 -1325440.5848 175.4830 -3001.3615 -3020.7867 482987.3242 -3082.7952 -3082.9896
ENERGY: 400000 295.9567 492.7098 76.5940 0.0000 -1383664.9807 51758.4811 0.0000 0.0000 5595.3580 -1325445.8812 175.5979 -1331041.2391 -1325437.2326 176.1525 -3112.4424 -3121.2649 482987.3242 -3055.2311 -3055.1563
ENERGY: 500000 306.8046 478.7710 66.2572 0.0000 -1383656.4560 51727.1872 0.0000 0.0000 5499.8541 -1325577.5819 172.6007 -1331077.4359 -1325568.1114 173.8772 -3186.4807 -3108.8541 482987.3242 -3063.2623 -3063.3897
