Info: SIMULATION PARAMETERS:
Info: TIMESTEP               1
Info: NUMBER OF STEPS        0
Info: STEPS PER CYCLE        20
Info: PERIODIC CELL BASIS 1  63.165 0 0
Info: PERIODIC CELL BASIS 2  0 63.165 0
Info: PERIODIC CELL BASIS 3  0 0 121.055
Info: PERIODIC CELL CENTER   0 0 0
Info: FIRST LDB TIMESTEP     100
Info: LAST LDB TIMESTEP     -1
Info: HOM BACKGROUND SCALING 1
Info: PME BACKGROUND SCALING 1
Info: MIN ATOMS PER PATCH    40
Info: INITIAL TEMPERATURE    111
Info: CENTER OF MASS MOVING INITIALLY? NO
Info: DIELECTRIC             1
Info: EXCLUDE                ONETHREE
Info: DCD FILENAME           OUT.LOG.dcd
Info: DCD FREQUENCY          5000
Info: DCD FIRST STEP         5000
Info: DCD FILE WILL CONTAIN UNIT CELL DATA
Info: XST FILENAME           OUT.LOG.xst
Info: XST FREQUENCY          2500
Info: NO VELOCITY DCD OUTPUT
Info: NO FORCE DCD OUTPUT
Info: OUTPUT FILENAME        OUT.LOG
Info: BINARY OUTPUT FILES WILL BE USED
Info: RESTART FILENAME       OUT.LOG.restart
Info: RESTART FREQUENCY      50000
Info: BINARY RESTART FILES WILL BE USED
Info: CUTOFF                 12
Info: PAIRLIST DISTANCE      14
Info: PAIRLIST SHRINK RATE   0.01
Info: PAIRLIST GROW RATE     0.01
Info: PAIRLIST TRIGGER       0.3
Info: PAIRLISTS PER CYCLE    2
Info: PAIRLISTS ENABLED
Info: MARGIN                 0
Info: HYDROGEN GROUP CUTOFF  2.5
Info: PATCH DIMENSION        16.5
Info: ENERGY OUTPUT STEPS    250
Info: CROSSTERM ENERGY INCLUDED IN DIHEDRAL
Info: TIMING OUTPUT STEPS    250
Info: PRESSURE OUTPUT STEPS  250
Info: LANGEVIN DYNAMICS ACTIVE
Info: LANGEVIN TEMPERATURE   111
Info: LANGEVIN USING BBK INTEGRATOR
Info: LANGEVIN DAMPING COEFFICIENT IS 1 INVERSE PS
Info: LANGEVIN DYNAMICS APPLIED TO HYDROGENS
Info: PARTICLE MESH EWALD (PME) ACTIVE
Info: PME TOLERANCE               1e-06
Info: PME EWALD COEFFICIENT       0.257952
Info: PME INTERPOLATION ORDER     4
Info: PME GRID DIMENSIONS         64 64 128
Info: PME MAXIMUM GRID SPACING    1
Info: FULL ELECTROSTATIC EVALUATION FREQUENCY      1
Info: USING VERLET I (r-RESPA) MTS SCHEME.
Info: C1 SPLITTING OF LONG RANGE ELECTROSTATICS
Info: PLACING ATOMS IN PATCHES BY HYDROGEN GROUPS
Info: RANDOM NUMBER SEED     1659569691
Info: USE HYDROGEN BONDS?    NO
Info: COORDINATE PDB         C4H10-monolayer.pdb
Info: STRUCTURE FILE         C4H10-monolayer.psf
Info: PARAMETER file: CHARMM format!
Info: PARAMETERS             par_interface.frc
Info: PARAMETERS             par_all22_prot.prm
Info: USING ARITHMETIC MEAN TO COMBINE L-J SIGMA PARAMETERS
Info: SUMMARY OF PARAMETERS:
Info: 235 BONDS
Info: 656 ANGLES
Info: 1132 DIHEDRAL
Info: 34 IMPROPER
Info: 6 CROSSTERM
Info: 157 VDW
Info: 0 VDW_PAIRS
Info: 0 NBTHOLE_PAIRS
Info: STRUCTURE SUMMARY:
Info: 10526 ATOMS
Info: 1417 BONDS
Info: 2616 ANGLES
Info: 2943 DIHEDRALS
Info: 0 IMPROPERS
Info: 0 CROSSTERMS
Info: 0 EXCLUSIONS
Info: 31578 DEGREES OF FREEDOM
Info: 9436 HYDROGEN GROUPS
Info: 4 ATOMS IN LARGEST HYDROGEN GROUP
Info: 9436 MIGRATION GROUPS
Info: 4 ATOMS IN LARGEST MIGRATION GROUP
Info: TOTAL MASS = 187705 amu
Info: TOTAL CHARGE = 0 e
Info: MASS DENSITY = 0.645356 g/cm^3
Info: ATOM DENSITY = 0.0217935 atoms/A^3
Info: ADDED 4033 IMPLICIT EXCLUSIONS
Info: NONBONDED TABLE R-SQUARED SPACING: 0.0625
Info: NONBONDED TABLE SIZE: 769 POINTS
Info: REMOVING COM VELOCITY -0.0149952 -0.00864429 0.0374369
TCL: Minimizing for 200 steps
ETITLE: TS BOND ANGLE DIHED IMPRP ELECT VDW BOUNDARY MISC KINETIC TOTAL TEMP POTENTIAL TOTAL3 TEMPAVG PRESSURE GPRESSURE VOLUME PRESSAVG GPRESSAVG
ENERGY: 0 151.2810 281.9448 39.2305 0.0000 -1385152.7450 50737.2136 0.0000 0.0000 0.0000 -1333943.0750 0.0000 -1333943.0750 -1333943.0750 0.0000 -4099.1545 -4124.0468 482987.3242 -4099.1545 -4124.0468
ENERGY: 40 6.9011 41.8465 26.7537 0.0000 -1385500.8088 49096.3951 0.0000 0.0000 0.0000 -1336328.9125 0.0000 -1336328.9125 -1336328.9125 0.0000 -5126.2182 -5153.3520 482987.3242 -5126.2182 -5153.3520
ENERGY: 80 14.7705 37.9427 6.3629 0.0000 -1385972.7549 49519.8534 0.0000 0.0000 0.0000 -1336393.8254 0.0000 -1336393.8254 -1336393.8254 0.0000 -4837.3449 -4867.0771 482987.3242 -4837.3449 -4867.0771
ENERGY: 120 5.9663 33.5949 5.9566 0.0000 -1385827.4044 49357.8986 0.0000 0.0000 0.0000 -1336423.9881 0.0000 -1336423.9881 -1336423.9881 0.0000 -4935.2482 -4970.9293 482987.3242 -4935.2482 -4970.9293
ENERGY: 160 6.3434 33.9459 4.8137 0.0000 -1385771.7964 49289.3878 0.0000 0.0000 0.0000 -1336437.3056 0.0000 -1336437.3056 -1336437.3056 0.0000 -4973.3222 -5008.6921 482987.3242 -4973.3222 -5008.6921
ENERGY: 200 5.8762 33.5997 4.8732 0.0000 -1385868.8075 49380.5787 0.0000 0.0000 0.0000 -1336443.8797 0.0000 -1336443.8797 -1336443.8797 0.0000 -4910.3256 -4907.3623 482987.3242 -4910.3256 -4907.3623
TCL: Running for 500000 steps
Info: Configuration file is ++local
ETITLE: TS BOND ANGLE DIHED IMPRP ELECT VDW BOUNDARY MISC KINETIC TOTAL TEMP POTENTIAL TOTAL3 TEMPAVG PRESSURE GPRESSURE VOLUME PRESSAVG GPRESSAVG
ENERGY: 250 42.8365 153.5652 24.4542 0.0000 -1385490.3162 50583.4693 0.0000 0.0000 1899.4857 -1332786.5052 60.5399 -1334685.9910 -1332782.1592 57.9458 -4123.3335 -4042.5843 482987.3242 -3989.4775 -3987.6104
ENERGY: 100250 158.7416 270.8324 37.4636 0.0000 -1384283.0147 50793.6479 0.0000 0.0000 3491.4790 -1329530.8501 111.2795 -1333022.3291 -1329525.7405 111.0453 -3818.0630 -3814.3491 482987.3242 -3678.2544 -3678.0748
ENERGY: 200250 157.6689 282.0308 37.9137 0.0000 -1384324.1142 50823.1096 0.0000 0.0000 3477.3908 -1329546.0003 110.8305 -1333023.3911 -1329541.6441 111.0807 -3771.2067 -3790.1918 482987.3242 -3651.2133 -3651.2526
ENERGY: 300000 157.5999 284.0923 41.9009 0.0000 -1384511.5446 51003.7434 0.0000 0.0000 3502.8939 -1329521.3142 111.6433 -1333024.2081 -1329514.9455 111.0214 -3657.3919 -3653.2493 482987.3242 -3701.4308 -3701.5333
ENERGY: 400000 145.0649 268.3181 39.1751 0.0000 -1384554.8458 51080.8170 0.0000 0.0000 3528.4318 -1329493.0389 112.4573 -1333021.4707 -1329485.7867 112.2135 -3579.3014 -3608.8638 482987.3242 -3738.4670 -3738.5954
ENERGY: 500000 158.8312 275.8205 39.7029 0.0000 -1384444.1006 50937.2741 0.0000 0.0000 3429.7451 -1329602.7266 109.3119 -1333032.4717 -1329597.0488 111.0044 -3712.6534 -3706.0575 482987.3242 -3607.0078 -3607.1878
