Info: SIMULATION PARAMETERS:
Info: TIMESTEP               1
Info: NUMBER OF STEPS        0
Info: STEPS PER CYCLE        20
Info: PERIODIC CELL BASIS 1  63.165 0 0
Info: PERIODIC CELL BASIS 2  0 63.165 0
Info: PERIODIC CELL BASIS 3  0 0 121.055
Info: PERIODIC CELL CENTER   0 0 0
Info: FIRST LDB TIMESTEP     100
Info: LAST LDB TIMESTEP     -1
Info: HOM BACKGROUND SCALING 1
Info: PME BACKGROUND SCALING 1
Info: MIN ATOMS PER PATCH    40
Info: INITIAL TEMPERATURE    175
Info: CENTER OF MASS MOVING INITIALLY? NO
Info: DIELECTRIC             1
Info: EXCLUDE                ONETHREE
Info: DCD FILENAME           OUT.LOG.dcd
Info: DCD FREQUENCY          5000
Info: DCD FIRST STEP         5000
Info: DCD FILE WILL CONTAIN UNIT CELL DATA
Info: XST FILENAME           OUT.LOG.xst
Info: XST FREQUENCY          2500
Info: NO VELOCITY DCD OUTPUT
Info: NO FORCE DCD OUTPUT
Info: OUTPUT FILENAME        OUT.LOG
Info: BINARY OUTPUT FILES WILL BE USED
Info: RESTART FILENAME       OUT.LOG.restart
Info: RESTART FREQUENCY      50000
Info: BINARY RESTART FILES WILL BE USED
Info: CUTOFF                 12
Info: PAIRLIST DISTANCE      14
Info: PAIRLIST SHRINK RATE   0.01
Info: PAIRLIST GROW RATE     0.01
Info: PAIRLIST TRIGGER       0.3
Info: PAIRLISTS PER CYCLE    2
Info: PAIRLISTS ENABLED
Info: MARGIN                 0
Info: HYDROGEN GROUP CUTOFF  2.5
Info: PATCH DIMENSION        16.5
Info: ENERGY OUTPUT STEPS    250
Info: CROSSTERM ENERGY INCLUDED IN DIHEDRAL
Info: TIMING OUTPUT STEPS    250
Info: PRESSURE OUTPUT STEPS  250
Info: LANGEVIN DYNAMICS ACTIVE
Info: LANGEVIN TEMPERATURE   175
Info: LANGEVIN USING BBK INTEGRATOR
Info: LANGEVIN DAMPING COEFFICIENT IS 1 INVERSE PS
Info: LANGEVIN DYNAMICS APPLIED TO HYDROGENS
Info: PARTICLE MESH EWALD (PME) ACTIVE
Info: PME TOLERANCE               1e-06
Info: PME EWALD COEFFICIENT       0.257952
Info: PME INTERPOLATION ORDER     4
Info: PME GRID DIMENSIONS         64 64 128
Info: PME MAXIMUM GRID SPACING    1
Info: FULL ELECTROSTATIC EVALUATION FREQUENCY      1
Info: USING VERLET I (r-RESPA) MTS SCHEME.
Info: C1 SPLITTING OF LONG RANGE ELECTROSTATICS
Info: PLACING ATOMS IN PATCHES BY HYDROGEN GROUPS
Info: RANDOM NUMBER SEED     1659570667
Info: USE HYDROGEN BONDS?    NO
Info: COORDINATE PDB         C8H18-halflayer.pdb
Info: STRUCTURE FILE         C8H18-halflayer.psf
Info: PARAMETER file: CHARMM format!
Info: PARAMETERS             par_interface.frc
Info: PARAMETERS             par_all22_prot.prm
Info: USING ARITHMETIC MEAN TO COMBINE L-J SIGMA PARAMETERS
Info: SUMMARY OF PARAMETERS:
Info: 235 BONDS
Info: 656 ANGLES
Info: 1132 DIHEDRAL
Info: 34 IMPROPER
Info: 6 CROSSTERM
Info: 157 VDW
Info: 0 VDW_PAIRS
Info: 0 NBTHOLE_PAIRS
Info: STRUCTURE SUMMARY:
Info: 9832 ATOMS
Info: 800 BONDS
Info: 1536 ANGLES
Info: 2016 DIHEDRALS
Info: 0 IMPROPERS
Info: 0 CROSSTERMS
Info: 0 EXCLUSIONS
Info: 29496 DEGREES OF FREEDOM
Info: 9256 HYDROGEN GROUPS
Info: 4 ATOMS IN LARGEST HYDROGEN GROUP
Info: 9256 MIGRATION GROUPS
Info: 4 ATOMS IN LARGEST MIGRATION GROUP
Info: TOTAL MASS = 185025 amu
Info: TOTAL CHARGE = 0 e
Info: MASS DENSITY = 0.636142 g/cm^3
Info: ATOM DENSITY = 0.0203566 atoms/A^3
Info: ADDED 2336 IMPLICIT EXCLUSIONS
Info: NONBONDED TABLE R-SQUARED SPACING: 0.0625
Info: NONBONDED TABLE SIZE: 769 POINTS
Info: REMOVING COM VELOCITY 0.00199408 -0.0219653 -0.00435967
TCL: Minimizing for 200 steps
ETITLE: TS BOND ANGLE DIHED IMPRP ELECT VDW BOUNDARY MISC KINETIC TOTAL TEMP POTENTIAL TOTAL3 TEMPAVG PRESSURE GPRESSURE VOLUME PRESSAVG GPRESSAVG
ENERGY: 0 136.7235 234.2269 29.2986 0.0000 -1385480.1418 51494.0308 0.0000 0.0000 0.0000 -1333585.8621 0.0000 -1333585.8621 -1333585.8621 0.0000 -4067.7022 -4086.1220 482987.3242 -4067.7022 -4086.1220
ENERGY: 40 11.2314 31.7906 19.5692 0.0000 -1385788.8137 49822.1397 0.0000 0.0000 0.0000 -1335904.0829 0.0000 -1335904.0829 -1335904.0829 0.0000 -5120.5130 -5148.0080 482987.3242 -5120.5130 -5148.0080
ENERGY: 80 9.4995 24.3175 7.2923 0.0000 -1386192.3187 50185.0622 0.0000 0.0000 0.0000 -1335966.1471 0.0000 -1335966.1471 -1335966.1471 0.0000 -4867.2920 -4900.7390 482987.3242 -4867.2920 -4900.7390
ENERGY: 120 9.4630 23.0624 5.6275 0.0000 -1386132.1657 50117.5621 0.0000 0.0000 0.0000 -1335976.4507 0.0000 -1335976.4507 -1335976.4507 0.0000 -4910.8426 -4943.9718 482987.3242 -4910.8426 -4943.9718
ENERGY: 160 9.9657 23.2623 3.6063 0.0000 -1385999.7087 49976.0155 0.0000 0.0000 0.0000 -1335986.8591 0.0000 -1335986.8591 -1335986.8591 0.0000 -5003.5031 -5038.7841 482987.3242 -5003.5031 -5038.7841
ENERGY: 200 9.7345 22.5624 3.4691 0.0000 -1386076.5567 50045.5128 0.0000 0.0000 0.0000 -1335995.2780 0.0000 -1335995.2780 -1335995.2780 0.0000 -4956.2095 -4954.8850 482987.3242 -4956.2095 -4954.8850
TCL: Running for 500000 steps
Info: Configuration file is ++local
ETITLE: TS BOND ANGLE DIHED IMPRP ELECT VDW BOUNDARY MISC KINETIC TOTAL TEMP POTENTIAL TOTAL3 TEMPAVG PRESSURE GPRESSURE VOLUME PRESSAVG GPRESSAVG
ENERGY: 250 51.2409 143.5841 23.4045 0.0000 -1385702.6529 52105.8265 0.0000 0.0000 2758.3513 -1330620.2457 94.1189 -1333378.5969 -1330614.4854 90.2534 -3528.4710 -3472.1215 482987.3242 -3445.7087 -3445.1036
ENERGY: 100250 131.1621 239.6349 34.5031 0.0000 -1383817.6074 52292.1579 0.0000 0.0000 5177.7996 -1325942.3499 176.6739 -1331120.1495 -1325936.5875 175.7079 -3057.1817 -3039.0419 482987.3242 -3005.8346 -3005.7589
ENERGY: 200250 142.3271 249.2711 35.5396 0.0000 -1383846.2107 52203.0925 0.0000 0.0000 5110.2896 -1326105.6906 174.3704 -1331215.9802 -1326097.5880 174.0411 -3085.8088 -3108.1623 482987.3242 -3064.3425 -3064.3671
ENERGY: 300000 129.1415 240.0270 38.5356 0.0000 -1383736.8559 52226.7673 0.0000 0.0000 5104.9628 -1325997.4217 174.1886 -1331102.3844 -1325991.6624 174.6170 -3071.2068 -3079.8944 482987.3242 -3076.3377 -3076.3370
ENERGY: 400000 130.3364 233.7062 33.1956 0.0000 -1383757.7249 52196.9625 0.0000 0.0000 5049.8320 -1326113.6923 172.3075 -1331163.5243 -1326104.7791 173.1979 -3097.9222 -3105.7210 482987.3242 -3059.5768 -3059.5124
ENERGY: 500000 151.3608 250.2823 35.7877 0.0000 -1383912.9285 52334.7807 0.0000 0.0000 5181.2829 -1325959.4342 176.7928 -1331140.7170 -1325953.6063 175.1800 -2995.9527 -2999.8403 482987.3242 -3043.8957 -3043.6599
